REMARK  Name = ../refined-set-2016/2oc2/2oc2_pocket.pdb
REMARK  275 active torsions:
REMARK  status: ('A' for Active; 'I' for Inactive)
REMARK    1  A    between atoms: _1  and  _3
REMARK    2  A    between atoms: _3  and  _4
REMARK    3  A    between atoms: _3  and  _6
REMARK    4  A    between atoms: _6  and  _7
REMARK    5  A    between atoms: _12  and  _14
REMARK    6  A    between atoms: _14  and  _15
REMARK    7  A    between atoms: _14  and  _17
REMARK    8  A    between atoms: _17  and  _18
REMARK    9  A    between atoms: _23  and  _25
REMARK   10  A    between atoms: _25  and  _26
REMARK   11  A    between atoms: _25  and  _28
REMARK   12  A    between atoms: _28  and  _29
REMARK   13  A    between atoms: _29  and  _30
REMARK   14  A    between atoms: _33  and  _35
REMARK   15  A    between atoms: _35  and  _36
REMARK   16  A    between atoms: _35  and  _38
REMARK   17  A    between atoms: _38  and  _39
REMARK   18  A    between atoms: _44  and  _45
REMARK   19  A    between atoms: _47  and  _49
REMARK   20  A    between atoms: _49  and  _50
REMARK   21  A    between atoms: _49  and  _52
REMARK   22  A    between atoms: _52  and  _53
REMARK   23  A    between atoms: _53  and  _54
REMARK   24  A    between atoms: _57  and  _59
REMARK   25  A    between atoms: _59  and  _60
REMARK   26  A    between atoms: _59  and  _62
REMARK   27  A    between atoms: _62  and  _63
REMARK   28  A    between atoms: _68  and  _70
REMARK   29  A    between atoms: _70  and  _71
REMARK   30  A    between atoms: _70  and  _73
REMARK   31  A    between atoms: _73  and  _74
REMARK   32  A    between atoms: _84  and  _86
REMARK   33  A    between atoms: _86  and  _87
REMARK   34  A    between atoms: _86  and  _89
REMARK   35  A    between atoms: _89  and  _90
REMARK   36  A    between atoms: _90  and  _91
REMARK   37  A    between atoms: _96  and  _98
REMARK   38  A    between atoms: _98  and  _99
REMARK   39  A    between atoms: _98  and  _101
REMARK   40  A    between atoms: _101  and  _102
REMARK   41  A    between atoms: _105  and  _107
REMARK   42  A    between atoms: _107  and  _108
REMARK   43  A    between atoms: _107  and  _110
REMARK   44  A    between atoms: _113  and  _115
REMARK   45  A    between atoms: _115  and  _116
REMARK   46  A    between atoms: _115  and  _118
REMARK   47  A    between atoms: _118  and  _119
REMARK   48  A    between atoms: _119  and  _247
REMARK   49  A    between atoms: _120  and  _122
REMARK   50  A    between atoms: _122  and  _123
REMARK   51  A    between atoms: _122  and  _125
REMARK   52  A    between atoms: _125  and  _126
REMARK   53  A    between atoms: _131  and  _133
REMARK   54  A    between atoms: _133  and  _134
REMARK   55  A    between atoms: _137  and  _139
REMARK   56  A    between atoms: _139  and  _140
REMARK   57  A    between atoms: _139  and  _142
REMARK   58  A    between atoms: _142  and  _143
REMARK   59  A    between atoms: _145  and  _147
REMARK   60  A    between atoms: _147  and  _148
REMARK   61  A    between atoms: _151  and  _153
REMARK   62  A    between atoms: _153  and  _154
REMARK   63  A    between atoms: _153  and  _156
REMARK   64  A    between atoms: _156  and  _157
REMARK   65  A    between atoms: _167  and  _169
REMARK   66  A    between atoms: _169  and  _170
REMARK   67  A    between atoms: _169  and  _172
REMARK   68  A    between atoms: _172  and  _173
REMARK   69  A    between atoms: _176  and  _178
REMARK   70  A    between atoms: _178  and  _179
REMARK   71  A    between atoms: _178  and  _181
REMARK   72  A    between atoms: _181  and  _182
REMARK   73  A    between atoms: _187  and  _188
REMARK   74  A    between atoms: _190  and  _192
REMARK   75  A    between atoms: _192  and  _193
REMARK   76  A    between atoms: _192  and  _195
REMARK   77  A    between atoms: _195  and  _196
REMARK   78  A    between atoms: _196  and  _197
REMARK   79  A    between atoms: _197  and  _198
REMARK   80  A    between atoms: _207  and  _209
REMARK   81  A    between atoms: _209  and  _210
REMARK   82  A    between atoms: _209  and  _212
REMARK   83  A    between atoms: _212  and  _213
REMARK   84  A    between atoms: _216  and  _218
REMARK   85  A    between atoms: _218  and  _219
REMARK   86  A    between atoms: _218  and  _221
REMARK   87  A    between atoms: _221  and  _222
REMARK   88  A    between atoms: _222  and  _223
REMARK   89  A    between atoms: _223  and  _224
REMARK   90  A    between atoms: _224  and  _225
REMARK   91  A    between atoms: _229  and  _231
REMARK   92  A    between atoms: _231  and  _232
REMARK   93  A    between atoms: _231  and  _234
REMARK   94  A    between atoms: _234  and  _235
REMARK   95  A    between atoms: _235  and  _236
REMARK   96  A    between atoms: _241  and  _243
REMARK   97  A    between atoms: _243  and  _244
REMARK   98  A    between atoms: _243  and  _246
REMARK   99  A    between atoms: _246  and  _247
REMARK  100  A    between atoms: _248  and  _250
REMARK  101  A    between atoms: _250  and  _251
REMARK  102  A    between atoms: _250  and  _253
REMARK  103  A    between atoms: _253  and  _254
REMARK  104  A    between atoms: _254  and  _255
REMARK  105  A    between atoms: _258  and  _260
REMARK  106  A    between atoms: _260  and  _261
REMARK  107  A    between atoms: _260  and  _263
REMARK  108  A    between atoms: _263  and  _264
REMARK  109  A    between atoms: _267  and  _269
REMARK  110  A    between atoms: _269  and  _270
REMARK  111  A    between atoms: _269  and  _272
REMARK  112  A    between atoms: _275  and  _277
REMARK  113  A    between atoms: _277  and  _278
REMARK  114  A    between atoms: _277  and  _280
REMARK  115  A    between atoms: _283  and  _285
REMARK  116  A    between atoms: _285  and  _286
REMARK  117  A    between atoms: _289  and  _291
REMARK  118  A    between atoms: _291  and  _292
REMARK  119  A    between atoms: _291  and  _294
REMARK  120  A    between atoms: _294  and  _295
REMARK  121  A    between atoms: _300  and  _302
REMARK  122  A    between atoms: _313  and  _316
REMARK  123  A    between atoms: _316  and  _317
REMARK  124  A    between atoms: _317  and  _318
REMARK  125  A    between atoms: _323  and  _326
REMARK  126  A    between atoms: _326  and  _327
REMARK  127  A    between atoms: _327  and  _328
REMARK  128  A    between atoms: _337  and  _338
REMARK  129  A    between atoms: _346  and  _348
REMARK  130  A    between atoms: _348  and  _349
REMARK  131  A    between atoms: _348  and  _351
REMARK  132  A    between atoms: _351  and  _352
REMARK  133  A    between atoms: _355  and  _357
REMARK  134  A    between atoms: _357  and  _358
REMARK  135  A    between atoms: _357  and  _360
REMARK  136  A    between atoms: _360  and  _361
REMARK  137  A    between atoms: _366  and  _367
REMARK  138  A    between atoms: _369  and  _371
REMARK  139  A    between atoms: _371  and  _372
REMARK  140  A    between atoms: _371  and  _374
REMARK  141  A    between atoms: _374  and  _375
REMARK  142  A    between atoms: _381  and  _383
REMARK  143  A    between atoms: _383  and  _384
REMARK  144  A    between atoms: _383  and  _386
REMARK  145  A    between atoms: _386  and  _387
REMARK  146  A    between atoms: _392  and  _393
REMARK  147  A    between atoms: _395  and  _397
REMARK  148  A    between atoms: _397  and  _398
REMARK  149  A    between atoms: _397  and  _400
REMARK  150  A    between atoms: _400  and  _401
REMARK  151  A    between atoms: _401  and  _402
REMARK  152  A    between atoms: _402  and  _403
REMARK  153  A    between atoms: _412  and  _414
REMARK  154  A    between atoms: _414  and  _415
REMARK  155  A    between atoms: _414  and  _417
REMARK  156  A    between atoms: _417  and  _418
REMARK  157  A    between atoms: _418  and  _419
REMARK  158  A    between atoms: _422  and  _424
REMARK  159  A    between atoms: _424  and  _425
REMARK  160  A    between atoms: _427  and  _429
REMARK  161  A    between atoms: _429  and  _430
REMARK  162  A    between atoms: _429  and  _432
REMARK  163  A    between atoms: _432  and  _433
REMARK  164  A    between atoms: _439  and  _440
REMARK  165  A    between atoms: _445  and  _447
REMARK  166  A    between atoms: _447  and  _448
REMARK  167  A    between atoms: _447  and  _450
REMARK  168  A    between atoms: _450  and  _451
REMARK  169  A    between atoms: _457  and  _459
REMARK  170  A    between atoms: _459  and  _460
REMARK  171  A    between atoms: _459  and  _462
REMARK  172  A    between atoms: _462  and  _463
REMARK  173  A    between atoms: _468  and  _470
REMARK  174  A    between atoms: _470  and  _471
REMARK  175  A    between atoms: _470  and  _473
REMARK  176  A    between atoms: _473  and  _474
REMARK  177  A    between atoms: _474  and  _475
REMARK  178  A    between atoms: _475  and  _476
REMARK  179  A    between atoms: _476  and  ZN_722
REMARK  180  A    between atoms: _478  and  _480
REMARK  181  A    between atoms: _480  and  _481
REMARK  182  A    between atoms: _484  and  _486
REMARK  183  A    between atoms: _486  and  _487
REMARK  184  A    between atoms: _489  and  _491
REMARK  185  A    between atoms: _491  and  _492
REMARK  186  A    between atoms: _491  and  _494
REMARK  187  A    between atoms: _494  and  _495
REMARK  188  A    between atoms: _498  and  _500
REMARK  189  A    between atoms: _500  and  _501
REMARK  190  A    between atoms: _504  and  _506
REMARK  191  A    between atoms: _506  and  _507
REMARK  192  A    between atoms: _506  and  _509
REMARK  193  A    between atoms: _509  and  _510
REMARK  194  A    between atoms: _513  and  _515
REMARK  195  A    between atoms: _515  and  _516
REMARK  196  A    between atoms: _515  and  _518
REMARK  197  A    between atoms: _518  and  _519
REMARK  198  A    between atoms: _519  and  _520
REMARK  199  A    between atoms: _520  and  _521
REMARK  200  A    between atoms: _521  and  _522
REMARK  201  A    between atoms: _526  and  _528
REMARK  202  A    between atoms: _528  and  _529
REMARK  203  A    between atoms: _528  and  _531
REMARK  204  A    between atoms: _531  and  _532
REMARK  205  A    between atoms: _538  and  _540
REMARK  206  A    between atoms: _540  and  _541
REMARK  207  A    between atoms: _540  and  _543
REMARK  208  A    between atoms: _543  and  _544
REMARK  209  A    between atoms: _550  and  _552
REMARK  210  A    between atoms: _552  and  _553
REMARK  211  A    between atoms: _552  and  _555
REMARK  212  A    between atoms: _555  and  _556
REMARK  213  A    between atoms: _558  and  _560
REMARK  214  A    between atoms: _560  and  _561
REMARK  215  A    between atoms: _560  and  _563
REMARK  216  A    between atoms: _566  and  _568
REMARK  217  A    between atoms: _568  and  _569
REMARK  218  A    between atoms: _568  and  _571
REMARK  219  A    between atoms: _571  and  _572
REMARK  220  A    between atoms: _572  and  _573
REMARK  221  A    between atoms: _573  and  _574
REMARK  222  A    between atoms: _574  and  _575
REMARK  223  A    between atoms: _579  and  _581
REMARK  224  A    between atoms: _581  and  _582
REMARK  225  A    between atoms: _581  and  _584
REMARK  226  A    between atoms: _584  and  _585
REMARK  227  A    between atoms: _591  and  _593
REMARK  228  A    between atoms: _593  and  _594
REMARK  229  A    between atoms: _593  and  _596
REMARK  230  A    between atoms: _596  and  _597
REMARK  231  A    between atoms: _602  and  _604
REMARK  232  A    between atoms: _604  and  _605
REMARK  233  A    between atoms: _604  and  _607
REMARK  234  A    between atoms: _607  and  _608
REMARK  235  A    between atoms: _610  and  _612
REMARK  236  A    between atoms: _612  and  _613
REMARK  237  A    between atoms: _612  and  _615
REMARK  238  A    between atoms: _615  and  _616
REMARK  239  A    between atoms: _618  and  _620
REMARK  240  A    between atoms: _620  and  _621
REMARK  241  A    between atoms: _620  and  _623
REMARK  242  A    between atoms: _627  and  _628
REMARK  243  A    between atoms: _633  and  _635
REMARK  244  A    between atoms: _635  and  _636
REMARK  245  A    between atoms: _635  and  _638
REMARK  246  A    between atoms: _638  and  _639
REMARK  247  A    between atoms: _644  and  _645
REMARK  248  A    between atoms: _647  and  _649
REMARK  249  A    between atoms: _649  and  _650
REMARK  250  A    between atoms: _649  and  _652
REMARK  251  A    between atoms: _652  and  _653
REMARK  252  A    between atoms: _653  and  _654
REMARK  253  A    between atoms: _654  and  _655
REMARK  254  A    between atoms: _664  and  _666
REMARK  255  A    between atoms: _666  and  _667
REMARK  256  A    between atoms: _666  and  _669
REMARK  257  A    between atoms: _669  and  _670
REMARK  258  A    between atoms: _675  and  _676
REMARK  259  A    between atoms: _678  and  _680
REMARK  260  A    between atoms: _680  and  _681
REMARK  261  A    between atoms: _680  and  _683
REMARK  262  A    between atoms: _683  and  _684
REMARK  263  A    between atoms: _690  and  _692
REMARK  264  A    between atoms: _692  and  _693
REMARK  265  A    between atoms: _692  and  _695
REMARK  266  A    between atoms: _695  and  _696
REMARK  267  A    between atoms: _698  and  _700
REMARK  268  A    between atoms: _700  and  _701
REMARK  269  A    between atoms: _700  and  _703
REMARK  270  A    between atoms: _703  and  _704
REMARK  271  A    between atoms: _710  and  _712
REMARK  272  A    between atoms: _712  and  _713
REMARK  273  A    between atoms: _712  and  _715
REMARK  274  A    between atoms: _715  and  _716
REMARK  275  A    between atoms: _716  and  _717
REMARK                            x       y       z     vdW  Elec       q    Type
REMARK                         _______ _______ _______ _____ _____    ______ ____
ROOT
ATOM      1  CB  ASN A   1      37.178  35.414  61.671  0.00  0.00    +0.110 C 
ENDROOT
BRANCH   1   2
ATOM      2  CG  ASN A   1      36.591  35.288  60.272  0.00  0.00    +0.221 C 
ATOM      3  OD1 ASN A   1      35.775  34.408  59.994  0.00  0.00    -0.275 OA
ATOM      4  ND2 ASN A   1      37.007  36.176  59.385  0.00  0.00    -0.329 N 
ATOM      5 HD21 ASN A   1      37.697  36.903  59.661  0.00  0.00    +0.145 HD
ATOM      6 HD22 ASN A   1      36.644  36.147  58.411  0.00  0.00    +0.145 HD
ENDBRANCH   1   2
BRANCH   1   7
ATOM      7  CA  ASN A   1      37.128  34.099  62.463  0.00  0.00    +0.142 C 
BRANCH   7   8
ATOM      8  N   ASN A   1      37.337  34.365  63.887  0.00  0.00    -0.239 NA
ATOM      9  H   ASN A   1      37.594  35.332  64.170  0.00  0.00    +0.142 HD
ENDBRANCH   7   8
BRANCH   7  10
ATOM     10  C   ASN A   1      38.137  33.103  61.897  0.00  0.00    +0.225 C 
ATOM     11  O   ASN A   1      37.793  32.271  61.052  0.00  0.00    -0.287 OA
ENDBRANCH   7  10
ENDBRANCH   1   7
TORSDOF 4
REMARK  Name = ../refined-set-2016/2oc2/2oc2_pocket.pdb
REMARK  275 active torsions:
REMARK  status: ('A' for Active; 'I' for Inactive)
REMARK    1  A    between atoms: _1  and  _3
REMARK    2  A    between atoms: _3  and  _4
REMARK    3  A    between atoms: _3  and  _6
REMARK    4  A    between atoms: _6  and  _7
REMARK    5  A    between atoms: _12  and  _14
REMARK    6  A    between atoms: _14  and  _15
REMARK    7  A    between atoms: _14  and  _17
REMARK    8  A    between atoms: _17  and  _18
REMARK    9  A    between atoms: _23  and  _25
REMARK   10  A    between atoms: _25  and  _26
REMARK   11  A    between atoms: _25  and  _28
REMARK   12  A    between atoms: _28  and  _29
REMARK   13  A    between atoms: _29  and  _30
REMARK   14  A    between atoms: _33  and  _35
REMARK   15  A    between atoms: _35  and  _36
REMARK   16  A    between atoms: _35  and  _38
REMARK   17  A    between atoms: _38  and  _39
REMARK   18  A    between atoms: _44  and  _45
REMARK   19  A    between atoms: _47  and  _49
REMARK   20  A    between atoms: _49  and  _50
REMARK   21  A    between atoms: _49  and  _52
REMARK   22  A    between atoms: _52  and  _53
REMARK   23  A    between atoms: _53  and  _54
REMARK   24  A    between atoms: _57  and  _59
REMARK   25  A    between atoms: _59  and  _60
REMARK   26  A    between atoms: _59  and  _62
REMARK   27  A    between atoms: _62  and  _63
REMARK   28  A    between atoms: _68  and  _70
REMARK   29  A    between atoms: _70  and  _71
REMARK   30  A    between atoms: _70  and  _73
REMARK   31  A    between atoms: _73  and  _74
REMARK   32  A    between atoms: _84  and  _86
REMARK   33  A    between atoms: _86  and  _87
REMARK   34  A    between atoms: _86  and  _89
REMARK   35  A    between atoms: _89  and  _90
REMARK   36  A    between atoms: _90  and  _91
REMARK   37  A    between atoms: _96  and  _98
REMARK   38  A    between atoms: _98  and  _99
REMARK   39  A    between atoms: _98  and  _101
REMARK   40  A    between atoms: _101  and  _102
REMARK   41  A    between atoms: _105  and  _107
REMARK   42  A    between atoms: _107  and  _108
REMARK   43  A    between atoms: _107  and  _110
REMARK   44  A    between atoms: _113  and  _115
REMARK   45  A    between atoms: _115  and  _116
REMARK   46  A    between atoms: _115  and  _118
REMARK   47  A    between atoms: _118  and  _119
REMARK   48  A    between atoms: _119  and  _247
REMARK   49  A    between atoms: _120  and  _122
REMARK   50  A    between atoms: _122  and  _123
REMARK   51  A    between atoms: _122  and  _125
REMARK   52  A    between atoms: _125  and  _126
REMARK   53  A    between atoms: _131  and  _133
REMARK   54  A    between atoms: _133  and  _134
REMARK   55  A    between atoms: _137  and  _139
REMARK   56  A    between atoms: _139  and  _140
REMARK   57  A    between atoms: _139  and  _142
REMARK   58  A    between atoms: _142  and  _143
REMARK   59  A    between atoms: _145  and  _147
REMARK   60  A    between atoms: _147  and  _148
REMARK   61  A    between atoms: _151  and  _153
REMARK   62  A    between atoms: _153  and  _154
REMARK   63  A    between atoms: _153  and  _156
REMARK   64  A    between atoms: _156  and  _157
REMARK   65  A    between atoms: _167  and  _169
REMARK   66  A    between atoms: _169  and  _170
REMARK   67  A    between atoms: _169  and  _172
REMARK   68  A    between atoms: _172  and  _173
REMARK   69  A    between atoms: _176  and  _178
REMARK   70  A    between atoms: _178  and  _179
REMARK   71  A    between atoms: _178  and  _181
REMARK   72  A    between atoms: _181  and  _182
REMARK   73  A    between atoms: _187  and  _188
REMARK   74  A    between atoms: _190  and  _192
REMARK   75  A    between atoms: _192  and  _193
REMARK   76  A    between atoms: _192  and  _195
REMARK   77  A    between atoms: _195  and  _196
REMARK   78  A    between atoms: _196  and  _197
REMARK   79  A    between atoms: _197  and  _198
REMARK   80  A    between atoms: _207  and  _209
REMARK   81  A    between atoms: _209  and  _210
REMARK   82  A    between atoms: _209  and  _212
REMARK   83  A    between atoms: _212  and  _213
REMARK   84  A    between atoms: _216  and  _218
REMARK   85  A    between atoms: _218  and  _219
REMARK   86  A    between atoms: _218  and  _221
REMARK   87  A    between atoms: _221  and  _222
REMARK   88  A    between atoms: _222  and  _223
REMARK   89  A    between atoms: _223  and  _224
REMARK   90  A    between atoms: _224  and  _225
REMARK   91  A    between atoms: _229  and  _231
REMARK   92  A    between atoms: _231  and  _232
REMARK   93  A    between atoms: _231  and  _234
REMARK   94  A    between atoms: _234  and  _235
REMARK   95  A    between atoms: _235  and  _236
REMARK   96  A    between atoms: _241  and  _243
REMARK   97  A    between atoms: _243  and  _244
REMARK   98  A    between atoms: _243  and  _246
REMARK   99  A    between atoms: _246  and  _247
REMARK  100  A    between atoms: _248  and  _250
REMARK  101  A    between atoms: _250  and  _251
REMARK  102  A    between atoms: _250  and  _253
REMARK  103  A    between atoms: _253  and  _254
REMARK  104  A    between atoms: _254  and  _255
REMARK  105  A    between atoms: _258  and  _260
REMARK  106  A    between atoms: _260  and  _261
REMARK  107  A    between atoms: _260  and  _263
REMARK  108  A    between atoms: _263  and  _264
REMARK  109  A    between atoms: _267  and  _269
REMARK  110  A    between atoms: _269  and  _270
REMARK  111  A    between atoms: _269  and  _272
REMARK  112  A    between atoms: _275  and  _277
REMARK  113  A    between atoms: _277  and  _278
REMARK  114  A    between atoms: _277  and  _280
REMARK  115  A    between atoms: _283  and  _285
REMARK  116  A    between atoms: _285  and  _286
REMARK  117  A    between atoms: _289  and  _291
REMARK  118  A    between atoms: _291  and  _292
REMARK  119  A    between atoms: _291  and  _294
REMARK  120  A    between atoms: _294  and  _295
REMARK  121  A    between atoms: _300  and  _302
REMARK  122  A    between atoms: _313  and  _316
REMARK  123  A    between atoms: _316  and  _317
REMARK  124  A    between atoms: _317  and  _318
REMARK  125  A    between atoms: _323  and  _326
REMARK  126  A    between atoms: _326  and  _327
REMARK  127  A    between atoms: _327  and  _328
REMARK  128  A    between atoms: _337  and  _338
REMARK  129  A    between atoms: _346  and  _348
REMARK  130  A    between atoms: _348  and  _349
REMARK  131  A    between atoms: _348  and  _351
REMARK  132  A    between atoms: _351  and  _352
REMARK  133  A    between atoms: _355  and  _357
REMARK  134  A    between atoms: _357  and  _358
REMARK  135  A    between atoms: _357  and  _360
REMARK  136  A    between atoms: _360  and  _361
REMARK  137  A    between atoms: _366  and  _367
REMARK  138  A    between atoms: _369  and  _371
REMARK  139  A    between atoms: _371  and  _372
REMARK  140  A    between atoms: _371  and  _374
REMARK  141  A    between atoms: _374  and  _375
REMARK  142  A    between atoms: _381  and  _383
REMARK  143  A    between atoms: _383  and  _384
REMARK  144  A    between atoms: _383  and  _386
REMARK  145  A    between atoms: _386  and  _387
REMARK  146  A    between atoms: _392  and  _393
REMARK  147  A    between atoms: _395  and  _397
REMARK  148  A    between atoms: _397  and  _398
REMARK  149  A    between atoms: _397  and  _400
REMARK  150  A    between atoms: _400  and  _401
REMARK  151  A    between atoms: _401  and  _402
REMARK  152  A    between atoms: _402  and  _403
REMARK  153  A    between atoms: _412  and  _414
REMARK  154  A    between atoms: _414  and  _415
REMARK  155  A    between atoms: _414  and  _417
REMARK  156  A    between atoms: _417  and  _418
REMARK  157  A    between atoms: _418  and  _419
REMARK  158  A    between atoms: _422  and  _424
REMARK  159  A    between atoms: _424  and  _425
REMARK  160  A    between atoms: _427  and  _429
REMARK  161  A    between atoms: _429  and  _430
REMARK  162  A    between atoms: _429  and  _432
REMARK  163  A    between atoms: _432  and  _433
REMARK  164  A    between atoms: _439  and  _440
REMARK  165  A    between atoms: _445  and  _447
REMARK  166  A    between atoms: _447  and  _448
REMARK  167  A    between atoms: _447  and  _450
REMARK  168  A    between atoms: _450  and  _451
REMARK  169  A    between atoms: _457  and  _459
REMARK  170  A    between atoms: _459  and  _460
REMARK  171  A    between atoms: _459  and  _462
REMARK  172  A    between atoms: _462  and  _463
REMARK  173  A    between atoms: _468  and  _470
REMARK  174  A    between atoms: _470  and  _471
REMARK  175  A    between atoms: _470  and  _473
REMARK  176  A    between atoms: _473  and  _474
REMARK  177  A    between atoms: _474  and  _475
REMARK  178  A    between atoms: _475  and  _476
REMARK  179  A    between atoms: _476  and  ZN_722
REMARK  180  A    between atoms: _478  and  _480
REMARK  181  A    between atoms: _480  and  _481
REMARK  182  A    between atoms: _484  and  _486
REMARK  183  A    between atoms: _486  and  _487
REMARK  184  A    between atoms: _489  and  _491
REMARK  185  A    between atoms: _491  and  _492
REMARK  186  A    between atoms: _491  and  _494
REMARK  187  A    between atoms: _494  and  _495
REMARK  188  A    between atoms: _498  and  _500
REMARK  189  A    between atoms: _500  and  _501
REMARK  190  A    between atoms: _504  and  _506
REMARK  191  A    between atoms: _506  and  _507
REMARK  192  A    between atoms: _506  and  _509
REMARK  193  A    between atoms: _509  and  _510
REMARK  194  A    between atoms: _513  and  _515
REMARK  195  A    between atoms: _515  and  _516
REMARK  196  A    between atoms: _515  and  _518
REMARK  197  A    between atoms: _518  and  _519
REMARK  198  A    between atoms: _519  and  _520
REMARK  199  A    between atoms: _520  and  _521
REMARK  200  A    between atoms: _521  and  _522
REMARK  201  A    between atoms: _526  and  _528
REMARK  202  A    between atoms: _528  and  _529
REMARK  203  A    between atoms: _528  and  _531
REMARK  204  A    between atoms: _531  and  _532
REMARK  205  A    between atoms: _538  and  _540
REMARK  206  A    between atoms: _540  and  _541
REMARK  207  A    between atoms: _540  and  _543
REMARK  208  A    between atoms: _543  and  _544
REMARK  209  A    between atoms: _550  and  _552
REMARK  210  A    between atoms: _552  and  _553
REMARK  211  A    between atoms: _552  and  _555
REMARK  212  A    between atoms: _555  and  _556
REMARK  213  A    between atoms: _558  and  _560
REMARK  214  A    between atoms: _560  and  _561
REMARK  215  A    between atoms: _560  and  _563
REMARK  216  A    between atoms: _566  and  _568
REMARK  217  A    between atoms: _568  and  _569
REMARK  218  A    between atoms: _568  and  _571
REMARK  219  A    between atoms: _571  and  _572
REMARK  220  A    between atoms: _572  and  _573
REMARK  221  A    between atoms: _573  and  _574
REMARK  222  A    between atoms: _574  and  _575
REMARK  223  A    between atoms: _579  and  _581
REMARK  224  A    between atoms: _581  and  _582
REMARK  225  A    between atoms: _581  and  _584
REMARK  226  A    between atoms: _584  and  _585
REMARK  227  A    between atoms: _591  and  _593
REMARK  228  A    between atoms: _593  and  _594
REMARK  229  A    between atoms: _593  and  _596
REMARK  230  A    between atoms: _596  and  _597
REMARK  231  A    between atoms: _602  and  _604
REMARK  232  A    between atoms: _604  and  _605
REMARK  233  A    between atoms: _604  and  _607
REMARK  234  A    between atoms: _607  and  _608
REMARK  235  A    between atoms: _610  and  _612
REMARK  236  A    between atoms: _612  and  _613
REMARK  237  A    between atoms: _612  and  _615
REMARK  238  A    between atoms: _615  and  _616
REMARK  239  A    between atoms: _618  and  _620
REMARK  240  A    between atoms: _620  and  _621
REMARK  241  A    between atoms: _620  and  _623
REMARK  242  A    between atoms: _627  and  _628
REMARK  243  A    between atoms: _633  and  _635
REMARK  244  A    between atoms: _635  and  _636
REMARK  245  A    between atoms: _635  and  _638
REMARK  246  A    between atoms: _638  and  _639
REMARK  247  A    between atoms: _644  and  _645
REMARK  248  A    between atoms: _647  and  _649
REMARK  249  A    between atoms: _649  and  _650
REMARK  250  A    between atoms: _649  and  _652
REMARK  251  A    between atoms: _652  and  _653
REMARK  252  A    between atoms: _653  and  _654
REMARK  253  A    between atoms: _654  and  _655
REMARK  254  A    between atoms: _664  and  _666
REMARK  255  A    between atoms: _666  and  _667
REMARK  256  A    between atoms: _666  and  _669
REMARK  257  A    between atoms: _669  and  _670
REMARK  258  A    between atoms: _675  and  _676
REMARK  259  A    between atoms: _678  and  _680
REMARK  260  A    between atoms: _680  and  _681
REMARK  261  A    between atoms: _680  and  _683
REMARK  262  A    between atoms: _683  and  _684
REMARK  263  A    between atoms: _690  and  _692
REMARK  264  A    between atoms: _692  and  _693
REMARK  265  A    between atoms: _692  and  _695
REMARK  266  A    between atoms: _695  and  _696
REMARK  267  A    between atoms: _698  and  _700
REMARK  268  A    between atoms: _700  and  _701
REMARK  269  A    between atoms: _700  and  _703
REMARK  270  A    between atoms: _703  and  _704
REMARK  271  A    between atoms: _710  and  _712
REMARK  272  A    between atoms: _712  and  _713
REMARK  273  A    between atoms: _712  and  _715
REMARK  274  A    between atoms: _715  and  _716
REMARK  275  A    between atoms: _716  and  _717
REMARK                            x       y       z     vdW  Elec       q    Type
REMARK                         _______ _______ _______ _____ _____    ______ ____
ROOT
ATOM      1  CB  ASN A   1      38.782  30.244  58.418  0.00  0.00    +0.110 C 
ENDROOT
BRANCH   1   2
ATOM      2  CG  ASN A   1      37.936  31.140  57.501  0.00  0.00    +0.221 C 
ATOM      3  ND2 ASN A   1      36.954  31.841  58.074  0.00  0.00    -0.329 N 
ATOM      4 HD21 ASN A   1      36.784  31.758  59.097  0.00  0.00    +0.145 HD
ATOM      5 HD22 ASN A   1      36.359  32.470  57.498  0.00  0.00    +0.145 HD
ATOM      6  OD1 ASN A   1      38.179  31.203  56.291  0.00  0.00    -0.275 OA
ENDBRANCH   1   2
BRANCH   1   7
ATOM      7  CA  ASN A   1      38.013  29.014  58.933  0.00  0.00    +0.142 C 
BRANCH   7   8
ATOM      8  N   ASN A   1      37.423  29.300  60.249  0.00  0.00    -0.239 NA
ATOM      9  H   ASN A   1      37.652  30.207  60.702  0.00  0.00    +0.142 HD
ENDBRANCH   7   8
BRANCH   7  10
ATOM     10  C   ASN A   1      38.931  27.781  58.904  0.00  0.00    +0.225 C 
ATOM     11  O   ASN A   1      38.950  27.028  57.919  0.00  0.00    -0.287 OA
ENDBRANCH   7  10
ENDBRANCH   1   7
TORSDOF 4
REMARK  Name = ../refined-set-2016/2oc2/2oc2_pocket.pdb
REMARK  275 active torsions:
REMARK  status: ('A' for Active; 'I' for Inactive)
REMARK    1  A    between atoms: _1  and  _3
REMARK    2  A    between atoms: _3  and  _4
REMARK    3  A    between atoms: _3  and  _6
REMARK    4  A    between atoms: _6  and  _7
REMARK    5  A    between atoms: _12  and  _14
REMARK    6  A    between atoms: _14  and  _15
REMARK    7  A    between atoms: _14  and  _17
REMARK    8  A    between atoms: _17  and  _18
REMARK    9  A    between atoms: _23  and  _25
REMARK   10  A    between atoms: _25  and  _26
REMARK   11  A    between atoms: _25  and  _28
REMARK   12  A    between atoms: _28  and  _29
REMARK   13  A    between atoms: _29  and  _30
REMARK   14  A    between atoms: _33  and  _35
REMARK   15  A    between atoms: _35  and  _36
REMARK   16  A    between atoms: _35  and  _38
REMARK   17  A    between atoms: _38  and  _39
REMARK   18  A    between atoms: _44  and  _45
REMARK   19  A    between atoms: _47  and  _49
REMARK   20  A    between atoms: _49  and  _50
REMARK   21  A    between atoms: _49  and  _52
REMARK   22  A    between atoms: _52  and  _53
REMARK   23  A    between atoms: _53  and  _54
REMARK   24  A    between atoms: _57  and  _59
REMARK   25  A    between atoms: _59  and  _60
REMARK   26  A    between atoms: _59  and  _62
REMARK   27  A    between atoms: _62  and  _63
REMARK   28  A    between atoms: _68  and  _70
REMARK   29  A    between atoms: _70  and  _71
REMARK   30  A    between atoms: _70  and  _73
REMARK   31  A    between atoms: _73  and  _74
REMARK   32  A    between atoms: _84  and  _86
REMARK   33  A    between atoms: _86  and  _87
REMARK   34  A    between atoms: _86  and  _89
REMARK   35  A    between atoms: _89  and  _90
REMARK   36  A    between atoms: _90  and  _91
REMARK   37  A    between atoms: _96  and  _98
REMARK   38  A    between atoms: _98  and  _99
REMARK   39  A    between atoms: _98  and  _101
REMARK   40  A    between atoms: _101  and  _102
REMARK   41  A    between atoms: _105  and  _107
REMARK   42  A    between atoms: _107  and  _108
REMARK   43  A    between atoms: _107  and  _110
REMARK   44  A    between atoms: _113  and  _115
REMARK   45  A    between atoms: _115  and  _116
REMARK   46  A    between atoms: _115  and  _118
REMARK   47  A    between atoms: _118  and  _119
REMARK   48  A    between atoms: _119  and  _247
REMARK   49  A    between atoms: _120  and  _122
REMARK   50  A    between atoms: _122  and  _123
REMARK   51  A    between atoms: _122  and  _125
REMARK   52  A    between atoms: _125  and  _126
REMARK   53  A    between atoms: _131  and  _133
REMARK   54  A    between atoms: _133  and  _134
REMARK   55  A    between atoms: _137  and  _139
REMARK   56  A    between atoms: _139  and  _140
REMARK   57  A    between atoms: _139  and  _142
REMARK   58  A    between atoms: _142  and  _143
REMARK   59  A    between atoms: _145  and  _147
REMARK   60  A    between atoms: _147  and  _148
REMARK   61  A    between atoms: _151  and  _153
REMARK   62  A    between atoms: _153  and  _154
REMARK   63  A    between atoms: _153  and  _156
REMARK   64  A    between atoms: _156  and  _157
REMARK   65  A    between atoms: _167  and  _169
REMARK   66  A    between atoms: _169  and  _170
REMARK   67  A    between atoms: _169  and  _172
REMARK   68  A    between atoms: _172  and  _173
REMARK   69  A    between atoms: _176  and  _178
REMARK   70  A    between atoms: _178  and  _179
REMARK   71  A    between atoms: _178  and  _181
REMARK   72  A    between atoms: _181  and  _182
REMARK   73  A    between atoms: _187  and  _188
REMARK   74  A    between atoms: _190  and  _192
REMARK   75  A    between atoms: _192  and  _193
REMARK   76  A    between atoms: _192  and  _195
REMARK   77  A    between atoms: _195  and  _196
REMARK   78  A    between atoms: _196  and  _197
REMARK   79  A    between atoms: _197  and  _198
REMARK   80  A    between atoms: _207  and  _209
REMARK   81  A    between atoms: _209  and  _210
REMARK   82  A    between atoms: _209  and  _212
REMARK   83  A    between atoms: _212  and  _213
REMARK   84  A    between atoms: _216  and  _218
REMARK   85  A    between atoms: _218  and  _219
REMARK   86  A    between atoms: _218  and  _221
REMARK   87  A    between atoms: _221  and  _222
REMARK   88  A    between atoms: _222  and  _223
REMARK   89  A    between atoms: _223  and  _224
REMARK   90  A    between atoms: _224  and  _225
REMARK   91  A    between atoms: _229  and  _231
REMARK   92  A    between atoms: _231  and  _232
REMARK   93  A    between atoms: _231  and  _234
REMARK   94  A    between atoms: _234  and  _235
REMARK   95  A    between atoms: _235  and  _236
REMARK   96  A    between atoms: _241  and  _243
REMARK   97  A    between atoms: _243  and  _244
REMARK   98  A    between atoms: _243  and  _246
REMARK   99  A    between atoms: _246  and  _247
REMARK  100  A    between atoms: _248  and  _250
REMARK  101  A    between atoms: _250  and  _251
REMARK  102  A    between atoms: _250  and  _253
REMARK  103  A    between atoms: _253  and  _254
REMARK  104  A    between atoms: _254  and  _255
REMARK  105  A    between atoms: _258  and  _260
REMARK  106  A    between atoms: _260  and  _261
REMARK  107  A    between atoms: _260  and  _263
REMARK  108  A    between atoms: _263  and  _264
REMARK  109  A    between atoms: _267  and  _269
REMARK  110  A    between atoms: _269  and  _270
REMARK  111  A    between atoms: _269  and  _272
REMARK  112  A    between atoms: _275  and  _277
REMARK  113  A    between atoms: _277  and  _278
REMARK  114  A    between atoms: _277  and  _280
REMARK  115  A    between atoms: _283  and  _285
REMARK  116  A    between atoms: _285  and  _286
REMARK  117  A    between atoms: _289  and  _291
REMARK  118  A    between atoms: _291  and  _292
REMARK  119  A    between atoms: _291  and  _294
REMARK  120  A    between atoms: _294  and  _295
REMARK  121  A    between atoms: _300  and  _302
REMARK  122  A    between atoms: _313  and  _316
REMARK  123  A    between atoms: _316  and  _317
REMARK  124  A    between atoms: _317  and  _318
REMARK  125  A    between atoms: _323  and  _326
REMARK  126  A    between atoms: _326  and  _327
REMARK  127  A    between atoms: _327  and  _328
REMARK  128  A    between atoms: _337  and  _338
REMARK  129  A    between atoms: _346  and  _348
REMARK  130  A    between atoms: _348  and  _349
REMARK  131  A    between atoms: _348  and  _351
REMARK  132  A    between atoms: _351  and  _352
REMARK  133  A    between atoms: _355  and  _357
REMARK  134  A    between atoms: _357  and  _358
REMARK  135  A    between atoms: _357  and  _360
REMARK  136  A    between atoms: _360  and  _361
REMARK  137  A    between atoms: _366  and  _367
REMARK  138  A    between atoms: _369  and  _371
REMARK  139  A    between atoms: _371  and  _372
REMARK  140  A    between atoms: _371  and  _374
REMARK  141  A    between atoms: _374  and  _375
REMARK  142  A    between atoms: _381  and  _383
REMARK  143  A    between atoms: _383  and  _384
REMARK  144  A    between atoms: _383  and  _386
REMARK  145  A    between atoms: _386  and  _387
REMARK  146  A    between atoms: _392  and  _393
REMARK  147  A    between atoms: _395  and  _397
REMARK  148  A    between atoms: _397  and  _398
REMARK  149  A    between atoms: _397  and  _400
REMARK  150  A    between atoms: _400  and  _401
REMARK  151  A    between atoms: _401  and  _402
REMARK  152  A    between atoms: _402  and  _403
REMARK  153  A    between atoms: _412  and  _414
REMARK  154  A    between atoms: _414  and  _415
REMARK  155  A    between atoms: _414  and  _417
REMARK  156  A    between atoms: _417  and  _418
REMARK  157  A    between atoms: _418  and  _419
REMARK  158  A    between atoms: _422  and  _424
REMARK  159  A    between atoms: _424  and  _425
REMARK  160  A    between atoms: _427  and  _429
REMARK  161  A    between atoms: _429  and  _430
REMARK  162  A    between atoms: _429  and  _432
REMARK  163  A    between atoms: _432  and  _433
REMARK  164  A    between atoms: _439  and  _440
REMARK  165  A    between atoms: _445  and  _447
REMARK  166  A    between atoms: _447  and  _448
REMARK  167  A    between atoms: _447  and  _450
REMARK  168  A    between atoms: _450  and  _451
REMARK  169  A    between atoms: _457  and  _459
REMARK  170  A    between atoms: _459  and  _460
REMARK  171  A    between atoms: _459  and  _462
REMARK  172  A    between atoms: _462  and  _463
REMARK  173  A    between atoms: _468  and  _470
REMARK  174  A    between atoms: _470  and  _471
REMARK  175  A    between atoms: _470  and  _473
REMARK  176  A    between atoms: _473  and  _474
REMARK  177  A    between atoms: _474  and  _475
REMARK  178  A    between atoms: _475  and  _476
REMARK  179  A    between atoms: _476  and  ZN_722
REMARK  180  A    between atoms: _478  and  _480
REMARK  181  A    between atoms: _480  and  _481
REMARK  182  A    between atoms: _484  and  _486
REMARK  183  A    between atoms: _486  and  _487
REMARK  184  A    between atoms: _489  and  _491
REMARK  185  A    between atoms: _491  and  _492
REMARK  186  A    between atoms: _491  and  _494
REMARK  187  A    between atoms: _494  and  _495
REMARK  188  A    between atoms: _498  and  _500
REMARK  189  A    between atoms: _500  and  _501
REMARK  190  A    between atoms: _504  and  _506
REMARK  191  A    between atoms: _506  and  _507
REMARK  192  A    between atoms: _506  and  _509
REMARK  193  A    between atoms: _509  and  _510
REMARK  194  A    between atoms: _513  and  _515
REMARK  195  A    between atoms: _515  and  _516
REMARK  196  A    between atoms: _515  and  _518
REMARK  197  A    between atoms: _518  and  _519
REMARK  198  A    between atoms: _519  and  _520
REMARK  199  A    between atoms: _520  and  _521
REMARK  200  A    between atoms: _521  and  _522
REMARK  201  A    between atoms: _526  and  _528
REMARK  202  A    between atoms: _528  and  _529
REMARK  203  A    between atoms: _528  and  _531
REMARK  204  A    between atoms: _531  and  _532
REMARK  205  A    between atoms: _538  and  _540
REMARK  206  A    between atoms: _540  and  _541
REMARK  207  A    between atoms: _540  and  _543
REMARK  208  A    between atoms: _543  and  _544
REMARK  209  A    between atoms: _550  and  _552
REMARK  210  A    between atoms: _552  and  _553
REMARK  211  A    between atoms: _552  and  _555
REMARK  212  A    between atoms: _555  and  _556
REMARK  213  A    between atoms: _558  and  _560
REMARK  214  A    between atoms: _560  and  _561
REMARK  215  A    between atoms: _560  and  _563
REMARK  216  A    between atoms: _566  and  _568
REMARK  217  A    between atoms: _568  and  _569
REMARK  218  A    between atoms: _568  and  _571
REMARK  219  A    between atoms: _571  and  _572
REMARK  220  A    between atoms: _572  and  _573
REMARK  221  A    between atoms: _573  and  _574
REMARK  222  A    between atoms: _574  and  _575
REMARK  223  A    between atoms: _579  and  _581
REMARK  224  A    between atoms: _581  and  _582
REMARK  225  A    between atoms: _581  and  _584
REMARK  226  A    between atoms: _584  and  _585
REMARK  227  A    between atoms: _591  and  _593
REMARK  228  A    between atoms: _593  and  _594
REMARK  229  A    between atoms: _593  and  _596
REMARK  230  A    between atoms: _596  and  _597
REMARK  231  A    between atoms: _602  and  _604
REMARK  232  A    between atoms: _604  and  _605
REMARK  233  A    between atoms: _604  and  _607
REMARK  234  A    between atoms: _607  and  _608
REMARK  235  A    between atoms: _610  and  _612
REMARK  236  A    between atoms: _612  and  _613
REMARK  237  A    between atoms: _612  and  _615
REMARK  238  A    between atoms: _615  and  _616
REMARK  239  A    between atoms: _618  and  _620
REMARK  240  A    between atoms: _620  and  _621
REMARK  241  A    between atoms: _620  and  _623
REMARK  242  A    between atoms: _627  and  _628
REMARK  243  A    between atoms: _633  and  _635
REMARK  244  A    between atoms: _635  and  _636
REMARK  245  A    between atoms: _635  and  _638
REMARK  246  A    between atoms: _638  and  _639
REMARK  247  A    between atoms: _644  and  _645
REMARK  248  A    between atoms: _647  and  _649
REMARK  249  A    between atoms: _649  and  _650
REMARK  250  A    between atoms: _649  and  _652
REMARK  251  A    between atoms: _652  and  _653
REMARK  252  A    between atoms: _653  and  _654
REMARK  253  A    between atoms: _654  and  _655
REMARK  254  A    between atoms: _664  and  _666
REMARK  255  A    between atoms: _666  and  _667
REMARK  256  A    between atoms: _666  and  _669
REMARK  257  A    between atoms: _669  and  _670
REMARK  258  A    between atoms: _675  and  _676
REMARK  259  A    between atoms: _678  and  _680
REMARK  260  A    between atoms: _680  and  _681
REMARK  261  A    between atoms: _680  and  _683
REMARK  262  A    between atoms: _683  and  _684
REMARK  263  A    between atoms: _690  and  _692
REMARK  264  A    between atoms: _692  and  _693
REMARK  265  A    between atoms: _692  and  _695
REMARK  266  A    between atoms: _695  and  _696
REMARK  267  A    between atoms: _698  and  _700
REMARK  268  A    between atoms: _700  and  _701
REMARK  269  A    between atoms: _700  and  _703
REMARK  270  A    between atoms: _703  and  _704
REMARK  271  A    between atoms: _710  and  _712
REMARK  272  A    between atoms: _712  and  _713
REMARK  273  A    between atoms: _712  and  _715
REMARK  274  A    between atoms: _715  and  _716
REMARK  275  A    between atoms: _716  and  _717
REMARK                            x       y       z     vdW  Elec       q    Type
REMARK                         _______ _______ _______ _____ _____    ______ ____
ROOT
ATOM      1  CA  GLU A   1      30.312  29.756  53.715  0.00  0.00    +0.134 C 
ENDROOT
BRANCH   1   2
ATOM      2  N   GLU A   1      28.886  30.115  53.625  0.00  0.00    -0.239 NA
ATOM      3  H   GLU A   1      28.513  30.820  54.292  0.00  0.00    +0.142 HD
ENDBRANCH   1   2
BRANCH   1   4
ATOM      4  C   GLU A   1      30.512  28.274  54.023  0.00  0.00    +0.224 C 
ATOM      5  O   GLU A   1      31.349  27.601  53.419  0.00  0.00    -0.287 OA
ENDBRANCH   1   4
BRANCH   1   6
ATOM      6  CB  GLU A   1      31.000  30.554  54.827  0.00  0.00    +0.037 C 
BRANCH   6   7
ATOM      7  CG  GLU A   1      31.139  32.040  54.595  0.00  0.00    +0.116 C 
BRANCH   7   8
ATOM      8  CD  GLU A   1      31.749  32.750  55.789  0.00  0.00    +0.365 C 
ATOM      9  OE2 GLU A   1      31.132  33.718  56.279  0.00  0.00    -0.246 OA
ATOM     10  OE1 GLU A   1      32.837  32.338  56.244  0.00  0.00    -0.246 OA
ENDBRANCH   7   8
ENDBRANCH   6   7
ENDBRANCH   1   6
TORSDOF 5
REMARK  Name = ../refined-set-2016/2oc2/2oc2_pocket.pdb
REMARK  275 active torsions:
REMARK  status: ('A' for Active; 'I' for Inactive)
REMARK    1  A    between atoms: _1  and  _3
REMARK    2  A    between atoms: _3  and  _4
REMARK    3  A    between atoms: _3  and  _6
REMARK    4  A    between atoms: _6  and  _7
REMARK    5  A    between atoms: _12  and  _14
REMARK    6  A    between atoms: _14  and  _15
REMARK    7  A    between atoms: _14  and  _17
REMARK    8  A    between atoms: _17  and  _18
REMARK    9  A    between atoms: _23  and  _25
REMARK   10  A    between atoms: _25  and  _26
REMARK   11  A    between atoms: _25  and  _28
REMARK   12  A    between atoms: _28  and  _29
REMARK   13  A    between atoms: _29  and  _30
REMARK   14  A    between atoms: _33  and  _35
REMARK   15  A    between atoms: _35  and  _36
REMARK   16  A    between atoms: _35  and  _38
REMARK   17  A    between atoms: _38  and  _39
REMARK   18  A    between atoms: _44  and  _45
REMARK   19  A    between atoms: _47  and  _49
REMARK   20  A    between atoms: _49  and  _50
REMARK   21  A    between atoms: _49  and  _52
REMARK   22  A    between atoms: _52  and  _53
REMARK   23  A    between atoms: _53  and  _54
REMARK   24  A    between atoms: _57  and  _59
REMARK   25  A    between atoms: _59  and  _60
REMARK   26  A    between atoms: _59  and  _62
REMARK   27  A    between atoms: _62  and  _63
REMARK   28  A    between atoms: _68  and  _70
REMARK   29  A    between atoms: _70  and  _71
REMARK   30  A    between atoms: _70  and  _73
REMARK   31  A    between atoms: _73  and  _74
REMARK   32  A    between atoms: _84  and  _86
REMARK   33  A    between atoms: _86  and  _87
REMARK   34  A    between atoms: _86  and  _89
REMARK   35  A    between atoms: _89  and  _90
REMARK   36  A    between atoms: _90  and  _91
REMARK   37  A    between atoms: _96  and  _98
REMARK   38  A    between atoms: _98  and  _99
REMARK   39  A    between atoms: _98  and  _101
REMARK   40  A    between atoms: _101  and  _102
REMARK   41  A    between atoms: _105  and  _107
REMARK   42  A    between atoms: _107  and  _108
REMARK   43  A    between atoms: _107  and  _110
REMARK   44  A    between atoms: _113  and  _115
REMARK   45  A    between atoms: _115  and  _116
REMARK   46  A    between atoms: _115  and  _118
REMARK   47  A    between atoms: _118  and  _119
REMARK   48  A    between atoms: _119  and  _247
REMARK   49  A    between atoms: _120  and  _122
REMARK   50  A    between atoms: _122  and  _123
REMARK   51  A    between atoms: _122  and  _125
REMARK   52  A    between atoms: _125  and  _126
REMARK   53  A    between atoms: _131  and  _133
REMARK   54  A    between atoms: _133  and  _134
REMARK   55  A    between atoms: _137  and  _139
REMARK   56  A    between atoms: _139  and  _140
REMARK   57  A    between atoms: _139  and  _142
REMARK   58  A    between atoms: _142  and  _143
REMARK   59  A    between atoms: _145  and  _147
REMARK   60  A    between atoms: _147  and  _148
REMARK   61  A    between atoms: _151  and  _153
REMARK   62  A    between atoms: _153  and  _154
REMARK   63  A    between atoms: _153  and  _156
REMARK   64  A    between atoms: _156  and  _157
REMARK   65  A    between atoms: _167  and  _169
REMARK   66  A    between atoms: _169  and  _170
REMARK   67  A    between atoms: _169  and  _172
REMARK   68  A    between atoms: _172  and  _173
REMARK   69  A    between atoms: _176  and  _178
REMARK   70  A    between atoms: _178  and  _179
REMARK   71  A    between atoms: _178  and  _181
REMARK   72  A    between atoms: _181  and  _182
REMARK   73  A    between atoms: _187  and  _188
REMARK   74  A    between atoms: _190  and  _192
REMARK   75  A    between atoms: _192  and  _193
REMARK   76  A    between atoms: _192  and  _195
REMARK   77  A    between atoms: _195  and  _196
REMARK   78  A    between atoms: _196  and  _197
REMARK   79  A    between atoms: _197  and  _198
REMARK   80  A    between atoms: _207  and  _209
REMARK   81  A    between atoms: _209  and  _210
REMARK   82  A    between atoms: _209  and  _212
REMARK   83  A    between atoms: _212  and  _213
REMARK   84  A    between atoms: _216  and  _218
REMARK   85  A    between atoms: _218  and  _219
REMARK   86  A    between atoms: _218  and  _221
REMARK   87  A    between atoms: _221  and  _222
REMARK   88  A    between atoms: _222  and  _223
REMARK   89  A    between atoms: _223  and  _224
REMARK   90  A    between atoms: _224  and  _225
REMARK   91  A    between atoms: _229  and  _231
REMARK   92  A    between atoms: _231  and  _232
REMARK   93  A    between atoms: _231  and  _234
REMARK   94  A    between atoms: _234  and  _235
REMARK   95  A    between atoms: _235  and  _236
REMARK   96  A    between atoms: _241  and  _243
REMARK   97  A    between atoms: _243  and  _244
REMARK   98  A    between atoms: _243  and  _246
REMARK   99  A    between atoms: _246  and  _247
REMARK  100  A    between atoms: _248  and  _250
REMARK  101  A    between atoms: _250  and  _251
REMARK  102  A    between atoms: _250  and  _253
REMARK  103  A    between atoms: _253  and  _254
REMARK  104  A    between atoms: _254  and  _255
REMARK  105  A    between atoms: _258  and  _260
REMARK  106  A    between atoms: _260  and  _261
REMARK  107  A    between atoms: _260  and  _263
REMARK  108  A    between atoms: _263  and  _264
REMARK  109  A    between atoms: _267  and  _269
REMARK  110  A    between atoms: _269  and  _270
REMARK  111  A    between atoms: _269  and  _272
REMARK  112  A    between atoms: _275  and  _277
REMARK  113  A    between atoms: _277  and  _278
REMARK  114  A    between atoms: _277  and  _280
REMARK  115  A    between atoms: _283  and  _285
REMARK  116  A    between atoms: _285  and  _286
REMARK  117  A    between atoms: _289  and  _291
REMARK  118  A    between atoms: _291  and  _292
REMARK  119  A    between atoms: _291  and  _294
REMARK  120  A    between atoms: _294  and  _295
REMARK  121  A    between atoms: _300  and  _302
REMARK  122  A    between atoms: _313  and  _316
REMARK  123  A    between atoms: _316  and  _317
REMARK  124  A    between atoms: _317  and  _318
REMARK  125  A    between atoms: _323  and  _326
REMARK  126  A    between atoms: _326  and  _327
REMARK  127  A    between atoms: _327  and  _328
REMARK  128  A    between atoms: _337  and  _338
REMARK  129  A    between atoms: _346  and  _348
REMARK  130  A    between atoms: _348  and  _349
REMARK  131  A    between atoms: _348  and  _351
REMARK  132  A    between atoms: _351  and  _352
REMARK  133  A    between atoms: _355  and  _357
REMARK  134  A    between atoms: _357  and  _358
REMARK  135  A    between atoms: _357  and  _360
REMARK  136  A    between atoms: _360  and  _361
REMARK  137  A    between atoms: _366  and  _367
REMARK  138  A    between atoms: _369  and  _371
REMARK  139  A    between atoms: _371  and  _372
REMARK  140  A    between atoms: _371  and  _374
REMARK  141  A    between atoms: _374  and  _375
REMARK  142  A    between atoms: _381  and  _383
REMARK  143  A    between atoms: _383  and  _384
REMARK  144  A    between atoms: _383  and  _386
REMARK  145  A    between atoms: _386  and  _387
REMARK  146  A    between atoms: _392  and  _393
REMARK  147  A    between atoms: _395  and  _397
REMARK  148  A    between atoms: _397  and  _398
REMARK  149  A    between atoms: _397  and  _400
REMARK  150  A    between atoms: _400  and  _401
REMARK  151  A    between atoms: _401  and  _402
REMARK  152  A    between atoms: _402  and  _403
REMARK  153  A    between atoms: _412  and  _414
REMARK  154  A    between atoms: _414  and  _415
REMARK  155  A    between atoms: _414  and  _417
REMARK  156  A    between atoms: _417  and  _418
REMARK  157  A    between atoms: _418  and  _419
REMARK  158  A    between atoms: _422  and  _424
REMARK  159  A    between atoms: _424  and  _425
REMARK  160  A    between atoms: _427  and  _429
REMARK  161  A    between atoms: _429  and  _430
REMARK  162  A    between atoms: _429  and  _432
REMARK  163  A    between atoms: _432  and  _433
REMARK  164  A    between atoms: _439  and  _440
REMARK  165  A    between atoms: _445  and  _447
REMARK  166  A    between atoms: _447  and  _448
REMARK  167  A    between atoms: _447  and  _450
REMARK  168  A    between atoms: _450  and  _451
REMARK  169  A    between atoms: _457  and  _459
REMARK  170  A    between atoms: _459  and  _460
REMARK  171  A    between atoms: _459  and  _462
REMARK  172  A    between atoms: _462  and  _463
REMARK  173  A    between atoms: _468  and  _470
REMARK  174  A    between atoms: _470  and  _471
REMARK  175  A    between atoms: _470  and  _473
REMARK  176  A    between atoms: _473  and  _474
REMARK  177  A    between atoms: _474  and  _475
REMARK  178  A    between atoms: _475  and  _476
REMARK  179  A    between atoms: _476  and  ZN_722
REMARK  180  A    between atoms: _478  and  _480
REMARK  181  A    between atoms: _480  and  _481
REMARK  182  A    between atoms: _484  and  _486
REMARK  183  A    between atoms: _486  and  _487
REMARK  184  A    between atoms: _489  and  _491
REMARK  185  A    between atoms: _491  and  _492
REMARK  186  A    between atoms: _491  and  _494
REMARK  187  A    between atoms: _494  and  _495
REMARK  188  A    between atoms: _498  and  _500
REMARK  189  A    between atoms: _500  and  _501
REMARK  190  A    between atoms: _504  and  _506
REMARK  191  A    between atoms: _506  and  _507
REMARK  192  A    between atoms: _506  and  _509
REMARK  193  A    between atoms: _509  and  _510
REMARK  194  A    between atoms: _513  and  _515
REMARK  195  A    between atoms: _515  and  _516
REMARK  196  A    between atoms: _515  and  _518
REMARK  197  A    between atoms: _518  and  _519
REMARK  198  A    between atoms: _519  and  _520
REMARK  199  A    between atoms: _520  and  _521
REMARK  200  A    between atoms: _521  and  _522
REMARK  201  A    between atoms: _526  and  _528
REMARK  202  A    between atoms: _528  and  _529
REMARK  203  A    between atoms: _528  and  _531
REMARK  204  A    between atoms: _531  and  _532
REMARK  205  A    between atoms: _538  and  _540
REMARK  206  A    between atoms: _540  and  _541
REMARK  207  A    between atoms: _540  and  _543
REMARK  208  A    between atoms: _543  and  _544
REMARK  209  A    between atoms: _550  and  _552
REMARK  210  A    between atoms: _552  and  _553
REMARK  211  A    between atoms: _552  and  _555
REMARK  212  A    between atoms: _555  and  _556
REMARK  213  A    between atoms: _558  and  _560
REMARK  214  A    between atoms: _560  and  _561
REMARK  215  A    between atoms: _560  and  _563
REMARK  216  A    between atoms: _566  and  _568
REMARK  217  A    between atoms: _568  and  _569
REMARK  218  A    between atoms: _568  and  _571
REMARK  219  A    between atoms: _571  and  _572
REMARK  220  A    between atoms: _572  and  _573
REMARK  221  A    between atoms: _573  and  _574
REMARK  222  A    between atoms: _574  and  _575
REMARK  223  A    between atoms: _579  and  _581
REMARK  224  A    between atoms: _581  and  _582
REMARK  225  A    between atoms: _581  and  _584
REMARK  226  A    between atoms: _584  and  _585
REMARK  227  A    between atoms: _591  and  _593
REMARK  228  A    between atoms: _593  and  _594
REMARK  229  A    between atoms: _593  and  _596
REMARK  230  A    between atoms: _596  and  _597
REMARK  231  A    between atoms: _602  and  _604
REMARK  232  A    between atoms: _604  and  _605
REMARK  233  A    between atoms: _604  and  _607
REMARK  234  A    between atoms: _607  and  _608
REMARK  235  A    between atoms: _610  and  _612
REMARK  236  A    between atoms: _612  and  _613
REMARK  237  A    between atoms: _612  and  _615
REMARK  238  A    between atoms: _615  and  _616
REMARK  239  A    between atoms: _618  and  _620
REMARK  240  A    between atoms: _620  and  _621
REMARK  241  A    between atoms: _620  and  _623
REMARK  242  A    between atoms: _627  and  _628
REMARK  243  A    between atoms: _633  and  _635
REMARK  244  A    between atoms: _635  and  _636
REMARK  245  A    between atoms: _635  and  _638
REMARK  246  A    between atoms: _638  and  _639
REMARK  247  A    between atoms: _644  and  _645
REMARK  248  A    between atoms: _647  and  _649
REMARK  249  A    between atoms: _649  and  _650
REMARK  250  A    between atoms: _649  and  _652
REMARK  251  A    between atoms: _652  and  _653
REMARK  252  A    between atoms: _653  and  _654
REMARK  253  A    between atoms: _654  and  _655
REMARK  254  A    between atoms: _664  and  _666
REMARK  255  A    between atoms: _666  and  _667
REMARK  256  A    between atoms: _666  and  _669
REMARK  257  A    between atoms: _669  and  _670
REMARK  258  A    between atoms: _675  and  _676
REMARK  259  A    between atoms: _678  and  _680
REMARK  260  A    between atoms: _680  and  _681
REMARK  261  A    between atoms: _680  and  _683
REMARK  262  A    between atoms: _683  and  _684
REMARK  263  A    between atoms: _690  and  _692
REMARK  264  A    between atoms: _692  and  _693
REMARK  265  A    between atoms: _692  and  _695
REMARK  266  A    between atoms: _695  and  _696
REMARK  267  A    between atoms: _698  and  _700
REMARK  268  A    between atoms: _700  and  _701
REMARK  269  A    between atoms: _700  and  _703
REMARK  270  A    between atoms: _703  and  _704
REMARK  271  A    between atoms: _710  and  _712
REMARK  272  A    between atoms: _712  and  _713
REMARK  273  A    between atoms: _712  and  _715
REMARK  274  A    between atoms: _715  and  _716
REMARK  275  A    between atoms: _716  and  _717
REMARK                            x       y       z     vdW  Elec       q    Type
REMARK                         _______ _______ _______ _____ _____    ______ ____
ROOT
ATOM      1  CG  TYR A   1      31.490  27.401  48.449  0.00  0.00    -0.020 A 
ATOM      2  CD2 TYR A   1      32.884  27.346  48.594  0.00  0.00    -0.001 A 
ATOM      3  CE2 TYR A   1      33.724  27.413  47.488  0.00  0.00    +0.036 A 
ATOM      4  CZ  TYR A   1      33.162  27.546  46.224  0.00  0.00    +0.134 A 
ATOM      5  CE1 TYR A   1      31.786  27.598  46.060  0.00  0.00    +0.036 A 
ATOM      6  CD1 TYR A   1      30.964  27.529  47.165  0.00  0.00    -0.001 A 
ENDROOT
BRANCH   4   7
ATOM      7  OH  TYR A   1      33.964  27.624  45.113  0.00  0.00    -0.506 OA
ATOM      8  HH  TYR A   1      34.559  28.411  45.192  0.00  0.00    +0.292 HD
ENDBRANCH   4   7
BRANCH   1   9
ATOM      9  CB  TYR A   1      30.572  27.315  49.656  0.00  0.00    +0.051 C 
BRANCH   9  10
ATOM     10  CA  TYR A   1      30.164  25.882  50.045  0.00  0.00    +0.137 C 
BRANCH  10  11
ATOM     11  N   TYR A   1      29.211  25.907  51.150  0.00  0.00    -0.239 NA
ATOM     12  H   TYR A   1      29.029  26.812  51.630  0.00  0.00    +0.142 HD
ENDBRANCH  10  11
BRANCH  10  13
ATOM     13  C   TYR A   1      31.391  25.054  50.405  0.00  0.00    +0.224 C 
ATOM     14  O   TYR A   1      31.887  24.283  49.576  0.00  0.00    -0.287 OA
ENDBRANCH  10  13
ENDBRANCH   9  10
ENDBRANCH   1   9
TORSDOF 5
REMARK  Name = ../refined-set-2016/2oc2/2oc2_pocket.pdb
REMARK  275 active torsions:
REMARK  status: ('A' for Active; 'I' for Inactive)
REMARK    1  A    between atoms: _1  and  _3
REMARK    2  A    between atoms: _3  and  _4
REMARK    3  A    between atoms: _3  and  _6
REMARK    4  A    between atoms: _6  and  _7
REMARK    5  A    between atoms: _12  and  _14
REMARK    6  A    between atoms: _14  and  _15
REMARK    7  A    between atoms: _14  and  _17
REMARK    8  A    between atoms: _17  and  _18
REMARK    9  A    between atoms: _23  and  _25
REMARK   10  A    between atoms: _25  and  _26
REMARK   11  A    between atoms: _25  and  _28
REMARK   12  A    between atoms: _28  and  _29
REMARK   13  A    between atoms: _29  and  _30
REMARK   14  A    between atoms: _33  and  _35
REMARK   15  A    between atoms: _35  and  _36
REMARK   16  A    between atoms: _35  and  _38
REMARK   17  A    between atoms: _38  and  _39
REMARK   18  A    between atoms: _44  and  _45
REMARK   19  A    between atoms: _47  and  _49
REMARK   20  A    between atoms: _49  and  _50
REMARK   21  A    between atoms: _49  and  _52
REMARK   22  A    between atoms: _52  and  _53
REMARK   23  A    between atoms: _53  and  _54
REMARK   24  A    between atoms: _57  and  _59
REMARK   25  A    between atoms: _59  and  _60
REMARK   26  A    between atoms: _59  and  _62
REMARK   27  A    between atoms: _62  and  _63
REMARK   28  A    between atoms: _68  and  _70
REMARK   29  A    between atoms: _70  and  _71
REMARK   30  A    between atoms: _70  and  _73
REMARK   31  A    between atoms: _73  and  _74
REMARK   32  A    between atoms: _84  and  _86
REMARK   33  A    between atoms: _86  and  _87
REMARK   34  A    between atoms: _86  and  _89
REMARK   35  A    between atoms: _89  and  _90
REMARK   36  A    between atoms: _90  and  _91
REMARK   37  A    between atoms: _96  and  _98
REMARK   38  A    between atoms: _98  and  _99
REMARK   39  A    between atoms: _98  and  _101
REMARK   40  A    between atoms: _101  and  _102
REMARK   41  A    between atoms: _105  and  _107
REMARK   42  A    between atoms: _107  and  _108
REMARK   43  A    between atoms: _107  and  _110
REMARK   44  A    between atoms: _113  and  _115
REMARK   45  A    between atoms: _115  and  _116
REMARK   46  A    between atoms: _115  and  _118
REMARK   47  A    between atoms: _118  and  _119
REMARK   48  A    between atoms: _119  and  _247
REMARK   49  A    between atoms: _120  and  _122
REMARK   50  A    between atoms: _122  and  _123
REMARK   51  A    between atoms: _122  and  _125
REMARK   52  A    between atoms: _125  and  _126
REMARK   53  A    between atoms: _131  and  _133
REMARK   54  A    between atoms: _133  and  _134
REMARK   55  A    between atoms: _137  and  _139
REMARK   56  A    between atoms: _139  and  _140
REMARK   57  A    between atoms: _139  and  _142
REMARK   58  A    between atoms: _142  and  _143
REMARK   59  A    between atoms: _145  and  _147
REMARK   60  A    between atoms: _147  and  _148
REMARK   61  A    between atoms: _151  and  _153
REMARK   62  A    between atoms: _153  and  _154
REMARK   63  A    between atoms: _153  and  _156
REMARK   64  A    between atoms: _156  and  _157
REMARK   65  A    between atoms: _167  and  _169
REMARK   66  A    between atoms: _169  and  _170
REMARK   67  A    between atoms: _169  and  _172
REMARK   68  A    between atoms: _172  and  _173
REMARK   69  A    between atoms: _176  and  _178
REMARK   70  A    between atoms: _178  and  _179
REMARK   71  A    between atoms: _178  and  _181
REMARK   72  A    between atoms: _181  and  _182
REMARK   73  A    between atoms: _187  and  _188
REMARK   74  A    between atoms: _190  and  _192
REMARK   75  A    between atoms: _192  and  _193
REMARK   76  A    between atoms: _192  and  _195
REMARK   77  A    between atoms: _195  and  _196
REMARK   78  A    between atoms: _196  and  _197
REMARK   79  A    between atoms: _197  and  _198
REMARK   80  A    between atoms: _207  and  _209
REMARK   81  A    between atoms: _209  and  _210
REMARK   82  A    between atoms: _209  and  _212
REMARK   83  A    between atoms: _212  and  _213
REMARK   84  A    between atoms: _216  and  _218
REMARK   85  A    between atoms: _218  and  _219
REMARK   86  A    between atoms: _218  and  _221
REMARK   87  A    between atoms: _221  and  _222
REMARK   88  A    between atoms: _222  and  _223
REMARK   89  A    between atoms: _223  and  _224
REMARK   90  A    between atoms: _224  and  _225
REMARK   91  A    between atoms: _229  and  _231
REMARK   92  A    between atoms: _231  and  _232
REMARK   93  A    between atoms: _231  and  _234
REMARK   94  A    between atoms: _234  and  _235
REMARK   95  A    between atoms: _235  and  _236
REMARK   96  A    between atoms: _241  and  _243
REMARK   97  A    between atoms: _243  and  _244
REMARK   98  A    between atoms: _243  and  _246
REMARK   99  A    between atoms: _246  and  _247
REMARK  100  A    between atoms: _248  and  _250
REMARK  101  A    between atoms: _250  and  _251
REMARK  102  A    between atoms: _250  and  _253
REMARK  103  A    between atoms: _253  and  _254
REMARK  104  A    between atoms: _254  and  _255
REMARK  105  A    between atoms: _258  and  _260
REMARK  106  A    between atoms: _260  and  _261
REMARK  107  A    between atoms: _260  and  _263
REMARK  108  A    between atoms: _263  and  _264
REMARK  109  A    between atoms: _267  and  _269
REMARK  110  A    between atoms: _269  and  _270
REMARK  111  A    between atoms: _269  and  _272
REMARK  112  A    between atoms: _275  and  _277
REMARK  113  A    between atoms: _277  and  _278
REMARK  114  A    between atoms: _277  and  _280
REMARK  115  A    between atoms: _283  and  _285
REMARK  116  A    between atoms: _285  and  _286
REMARK  117  A    between atoms: _289  and  _291
REMARK  118  A    between atoms: _291  and  _292
REMARK  119  A    between atoms: _291  and  _294
REMARK  120  A    between atoms: _294  and  _295
REMARK  121  A    between atoms: _300  and  _302
REMARK  122  A    between atoms: _313  and  _316
REMARK  123  A    between atoms: _316  and  _317
REMARK  124  A    between atoms: _317  and  _318
REMARK  125  A    between atoms: _323  and  _326
REMARK  126  A    between atoms: _326  and  _327
REMARK  127  A    between atoms: _327  and  _328
REMARK  128  A    between atoms: _337  and  _338
REMARK  129  A    between atoms: _346  and  _348
REMARK  130  A    between atoms: _348  and  _349
REMARK  131  A    between atoms: _348  and  _351
REMARK  132  A    between atoms: _351  and  _352
REMARK  133  A    between atoms: _355  and  _357
REMARK  134  A    between atoms: _357  and  _358
REMARK  135  A    between atoms: _357  and  _360
REMARK  136  A    between atoms: _360  and  _361
REMARK  137  A    between atoms: _366  and  _367
REMARK  138  A    between atoms: _369  and  _371
REMARK  139  A    between atoms: _371  and  _372
REMARK  140  A    between atoms: _371  and  _374
REMARK  141  A    between atoms: _374  and  _375
REMARK  142  A    between atoms: _381  and  _383
REMARK  143  A    between atoms: _383  and  _384
REMARK  144  A    between atoms: _383  and  _386
REMARK  145  A    between atoms: _386  and  _387
REMARK  146  A    between atoms: _392  and  _393
REMARK  147  A    between atoms: _395  and  _397
REMARK  148  A    between atoms: _397  and  _398
REMARK  149  A    between atoms: _397  and  _400
REMARK  150  A    between atoms: _400  and  _401
REMARK  151  A    between atoms: _401  and  _402
REMARK  152  A    between atoms: _402  and  _403
REMARK  153  A    between atoms: _412  and  _414
REMARK  154  A    between atoms: _414  and  _415
REMARK  155  A    between atoms: _414  and  _417
REMARK  156  A    between atoms: _417  and  _418
REMARK  157  A    between atoms: _418  and  _419
REMARK  158  A    between atoms: _422  and  _424
REMARK  159  A    between atoms: _424  and  _425
REMARK  160  A    between atoms: _427  and  _429
REMARK  161  A    between atoms: _429  and  _430
REMARK  162  A    between atoms: _429  and  _432
REMARK  163  A    between atoms: _432  and  _433
REMARK  164  A    between atoms: _439  and  _440
REMARK  165  A    between atoms: _445  and  _447
REMARK  166  A    between atoms: _447  and  _448
REMARK  167  A    between atoms: _447  and  _450
REMARK  168  A    between atoms: _450  and  _451
REMARK  169  A    between atoms: _457  and  _459
REMARK  170  A    between atoms: _459  and  _460
REMARK  171  A    between atoms: _459  and  _462
REMARK  172  A    between atoms: _462  and  _463
REMARK  173  A    between atoms: _468  and  _470
REMARK  174  A    between atoms: _470  and  _471
REMARK  175  A    between atoms: _470  and  _473
REMARK  176  A    between atoms: _473  and  _474
REMARK  177  A    between atoms: _474  and  _475
REMARK  178  A    between atoms: _475  and  _476
REMARK  179  A    between atoms: _476  and  ZN_722
REMARK  180  A    between atoms: _478  and  _480
REMARK  181  A    between atoms: _480  and  _481
REMARK  182  A    between atoms: _484  and  _486
REMARK  183  A    between atoms: _486  and  _487
REMARK  184  A    between atoms: _489  and  _491
REMARK  185  A    between atoms: _491  and  _492
REMARK  186  A    between atoms: _491  and  _494
REMARK  187  A    between atoms: _494  and  _495
REMARK  188  A    between atoms: _498  and  _500
REMARK  189  A    between atoms: _500  and  _501
REMARK  190  A    between atoms: _504  and  _506
REMARK  191  A    between atoms: _506  and  _507
REMARK  192  A    between atoms: _506  and  _509
REMARK  193  A    between atoms: _509  and  _510
REMARK  194  A    between atoms: _513  and  _515
REMARK  195  A    between atoms: _515  and  _516
REMARK  196  A    between atoms: _515  and  _518
REMARK  197  A    between atoms: _518  and  _519
REMARK  198  A    between atoms: _519  and  _520
REMARK  199  A    between atoms: _520  and  _521
REMARK  200  A    between atoms: _521  and  _522
REMARK  201  A    between atoms: _526  and  _528
REMARK  202  A    between atoms: _528  and  _529
REMARK  203  A    between atoms: _528  and  _531
REMARK  204  A    between atoms: _531  and  _532
REMARK  205  A    between atoms: _538  and  _540
REMARK  206  A    between atoms: _540  and  _541
REMARK  207  A    between atoms: _540  and  _543
REMARK  208  A    between atoms: _543  and  _544
REMARK  209  A    between atoms: _550  and  _552
REMARK  210  A    between atoms: _552  and  _553
REMARK  211  A    between atoms: _552  and  _555
REMARK  212  A    between atoms: _555  and  _556
REMARK  213  A    between atoms: _558  and  _560
REMARK  214  A    between atoms: _560  and  _561
REMARK  215  A    between atoms: _560  and  _563
REMARK  216  A    between atoms: _566  and  _568
REMARK  217  A    between atoms: _568  and  _569
REMARK  218  A    between atoms: _568  and  _571
REMARK  219  A    between atoms: _571  and  _572
REMARK  220  A    between atoms: _572  and  _573
REMARK  221  A    between atoms: _573  and  _574
REMARK  222  A    between atoms: _574  and  _575
REMARK  223  A    between atoms: _579  and  _581
REMARK  224  A    between atoms: _581  and  _582
REMARK  225  A    between atoms: _581  and  _584
REMARK  226  A    between atoms: _584  and  _585
REMARK  227  A    between atoms: _591  and  _593
REMARK  228  A    between atoms: _593  and  _594
REMARK  229  A    between atoms: _593  and  _596
REMARK  230  A    between atoms: _596  and  _597
REMARK  231  A    between atoms: _602  and  _604
REMARK  232  A    between atoms: _604  and  _605
REMARK  233  A    between atoms: _604  and  _607
REMARK  234  A    between atoms: _607  and  _608
REMARK  235  A    between atoms: _610  and  _612
REMARK  236  A    between atoms: _612  and  _613
REMARK  237  A    between atoms: _612  and  _615
REMARK  238  A    between atoms: _615  and  _616
REMARK  239  A    between atoms: _618  and  _620
REMARK  240  A    between atoms: _620  and  _621
REMARK  241  A    between atoms: _620  and  _623
REMARK  242  A    between atoms: _627  and  _628
REMARK  243  A    between atoms: _633  and  _635
REMARK  244  A    between atoms: _635  and  _636
REMARK  245  A    between atoms: _635  and  _638
REMARK  246  A    between atoms: _638  and  _639
REMARK  247  A    between atoms: _644  and  _645
REMARK  248  A    between atoms: _647  and  _649
REMARK  249  A    between atoms: _649  and  _650
REMARK  250  A    between atoms: _649  and  _652
REMARK  251  A    between atoms: _652  and  _653
REMARK  252  A    between atoms: _653  and  _654
REMARK  253  A    between atoms: _654  and  _655
REMARK  254  A    between atoms: _664  and  _666
REMARK  255  A    between atoms: _666  and  _667
REMARK  256  A    between atoms: _666  and  _669
REMARK  257  A    between atoms: _669  and  _670
REMARK  258  A    between atoms: _675  and  _676
REMARK  259  A    between atoms: _678  and  _680
REMARK  260  A    between atoms: _680  and  _681
REMARK  261  A    between atoms: _680  and  _683
REMARK  262  A    between atoms: _683  and  _684
REMARK  263  A    between atoms: _690  and  _692
REMARK  264  A    between atoms: _692  and  _693
REMARK  265  A    between atoms: _692  and  _695
REMARK  266  A    between atoms: _695  and  _696
REMARK  267  A    between atoms: _698  and  _700
REMARK  268  A    between atoms: _700  and  _701
REMARK  269  A    between atoms: _700  and  _703
REMARK  270  A    between atoms: _703  and  _704
REMARK  271  A    between atoms: _710  and  _712
REMARK  272  A    between atoms: _712  and  _713
REMARK  273  A    between atoms: _712  and  _715
REMARK  274  A    between atoms: _715  and  _716
REMARK  275  A    between atoms: _716  and  _717
REMARK                            x       y       z     vdW  Elec       q    Type
REMARK                         _______ _______ _______ _____ _____    ______ ____
ROOT
ATOM      1  CA  GLU A   1      40.167  20.996  46.551  0.00  0.00    +0.134 C 
ENDROOT
BRANCH   1   2
ATOM      2  N   GLU A   1      38.706  21.044  46.491  0.00  0.00    -0.239 NA
ATOM      3  H   GLU A   1      38.180  21.286  47.355  0.00  0.00    +0.142 HD
ENDBRANCH   1   2
BRANCH   1   4
ATOM      4  C   GLU A   1      40.590  19.830  47.434  0.00  0.00    +0.224 C 
ATOM      5  O   GLU A   1      40.093  19.705  48.560  0.00  0.00    -0.287 OA
ENDBRANCH   1   4
BRANCH   1   6
ATOM      6  CB  GLU A   1      40.741  22.315  47.094  0.00  0.00    +0.037 C 
BRANCH   6   7
ATOM      7  CG  GLU A   1      41.016  23.367  46.018  0.00  0.00    +0.116 C 
BRANCH   7   8
ATOM      8  CD  GLU A   1      40.871  24.798  46.522  0.00  0.00    +0.365 C 
ATOM      9  OE2 GLU A   1      40.802  25.003  47.755  0.00  0.00    -0.246 OA
ATOM     10  OE1 GLU A   1      40.820  25.727  45.682  0.00  0.00    -0.246 OA
ENDBRANCH   7   8
ENDBRANCH   6   7
ENDBRANCH   1   6
TORSDOF 5
REMARK  Name = ../refined-set-2016/2oc2/2oc2_pocket.pdb
REMARK  275 active torsions:
REMARK  status: ('A' for Active; 'I' for Inactive)
REMARK    1  A    between atoms: _1  and  _3
REMARK    2  A    between atoms: _3  and  _4
REMARK    3  A    between atoms: _3  and  _6
REMARK    4  A    between atoms: _6  and  _7
REMARK    5  A    between atoms: _12  and  _14
REMARK    6  A    between atoms: _14  and  _15
REMARK    7  A    between atoms: _14  and  _17
REMARK    8  A    between atoms: _17  and  _18
REMARK    9  A    between atoms: _23  and  _25
REMARK   10  A    between atoms: _25  and  _26
REMARK   11  A    between atoms: _25  and  _28
REMARK   12  A    between atoms: _28  and  _29
REMARK   13  A    between atoms: _29  and  _30
REMARK   14  A    between atoms: _33  and  _35
REMARK   15  A    between atoms: _35  and  _36
REMARK   16  A    between atoms: _35  and  _38
REMARK   17  A    between atoms: _38  and  _39
REMARK   18  A    between atoms: _44  and  _45
REMARK   19  A    between atoms: _47  and  _49
REMARK   20  A    between atoms: _49  and  _50
REMARK   21  A    between atoms: _49  and  _52
REMARK   22  A    between atoms: _52  and  _53
REMARK   23  A    between atoms: _53  and  _54
REMARK   24  A    between atoms: _57  and  _59
REMARK   25  A    between atoms: _59  and  _60
REMARK   26  A    between atoms: _59  and  _62
REMARK   27  A    between atoms: _62  and  _63
REMARK   28  A    between atoms: _68  and  _70
REMARK   29  A    between atoms: _70  and  _71
REMARK   30  A    between atoms: _70  and  _73
REMARK   31  A    between atoms: _73  and  _74
REMARK   32  A    between atoms: _84  and  _86
REMARK   33  A    between atoms: _86  and  _87
REMARK   34  A    between atoms: _86  and  _89
REMARK   35  A    between atoms: _89  and  _90
REMARK   36  A    between atoms: _90  and  _91
REMARK   37  A    between atoms: _96  and  _98
REMARK   38  A    between atoms: _98  and  _99
REMARK   39  A    between atoms: _98  and  _101
REMARK   40  A    between atoms: _101  and  _102
REMARK   41  A    between atoms: _105  and  _107
REMARK   42  A    between atoms: _107  and  _108
REMARK   43  A    between atoms: _107  and  _110
REMARK   44  A    between atoms: _113  and  _115
REMARK   45  A    between atoms: _115  and  _116
REMARK   46  A    between atoms: _115  and  _118
REMARK   47  A    between atoms: _118  and  _119
REMARK   48  A    between atoms: _119  and  _247
REMARK   49  A    between atoms: _120  and  _122
REMARK   50  A    between atoms: _122  and  _123
REMARK   51  A    between atoms: _122  and  _125
REMARK   52  A    between atoms: _125  and  _126
REMARK   53  A    between atoms: _131  and  _133
REMARK   54  A    between atoms: _133  and  _134
REMARK   55  A    between atoms: _137  and  _139
REMARK   56  A    between atoms: _139  and  _140
REMARK   57  A    between atoms: _139  and  _142
REMARK   58  A    between atoms: _142  and  _143
REMARK   59  A    between atoms: _145  and  _147
REMARK   60  A    between atoms: _147  and  _148
REMARK   61  A    between atoms: _151  and  _153
REMARK   62  A    between atoms: _153  and  _154
REMARK   63  A    between atoms: _153  and  _156
REMARK   64  A    between atoms: _156  and  _157
REMARK   65  A    between atoms: _167  and  _169
REMARK   66  A    between atoms: _169  and  _170
REMARK   67  A    between atoms: _169  and  _172
REMARK   68  A    between atoms: _172  and  _173
REMARK   69  A    between atoms: _176  and  _178
REMARK   70  A    between atoms: _178  and  _179
REMARK   71  A    between atoms: _178  and  _181
REMARK   72  A    between atoms: _181  and  _182
REMARK   73  A    between atoms: _187  and  _188
REMARK   74  A    between atoms: _190  and  _192
REMARK   75  A    between atoms: _192  and  _193
REMARK   76  A    between atoms: _192  and  _195
REMARK   77  A    between atoms: _195  and  _196
REMARK   78  A    between atoms: _196  and  _197
REMARK   79  A    between atoms: _197  and  _198
REMARK   80  A    between atoms: _207  and  _209
REMARK   81  A    between atoms: _209  and  _210
REMARK   82  A    between atoms: _209  and  _212
REMARK   83  A    between atoms: _212  and  _213
REMARK   84  A    between atoms: _216  and  _218
REMARK   85  A    between atoms: _218  and  _219
REMARK   86  A    between atoms: _218  and  _221
REMARK   87  A    between atoms: _221  and  _222
REMARK   88  A    between atoms: _222  and  _223
REMARK   89  A    between atoms: _223  and  _224
REMARK   90  A    between atoms: _224  and  _225
REMARK   91  A    between atoms: _229  and  _231
REMARK   92  A    between atoms: _231  and  _232
REMARK   93  A    between atoms: _231  and  _234
REMARK   94  A    between atoms: _234  and  _235
REMARK   95  A    between atoms: _235  and  _236
REMARK   96  A    between atoms: _241  and  _243
REMARK   97  A    between atoms: _243  and  _244
REMARK   98  A    between atoms: _243  and  _246
REMARK   99  A    between atoms: _246  and  _247
REMARK  100  A    between atoms: _248  and  _250
REMARK  101  A    between atoms: _250  and  _251
REMARK  102  A    between atoms: _250  and  _253
REMARK  103  A    between atoms: _253  and  _254
REMARK  104  A    between atoms: _254  and  _255
REMARK  105  A    between atoms: _258  and  _260
REMARK  106  A    between atoms: _260  and  _261
REMARK  107  A    between atoms: _260  and  _263
REMARK  108  A    between atoms: _263  and  _264
REMARK  109  A    between atoms: _267  and  _269
REMARK  110  A    between atoms: _269  and  _270
REMARK  111  A    between atoms: _269  and  _272
REMARK  112  A    between atoms: _275  and  _277
REMARK  113  A    between atoms: _277  and  _278
REMARK  114  A    between atoms: _277  and  _280
REMARK  115  A    between atoms: _283  and  _285
REMARK  116  A    between atoms: _285  and  _286
REMARK  117  A    between atoms: _289  and  _291
REMARK  118  A    between atoms: _291  and  _292
REMARK  119  A    between atoms: _291  and  _294
REMARK  120  A    between atoms: _294  and  _295
REMARK  121  A    between atoms: _300  and  _302
REMARK  122  A    between atoms: _313  and  _316
REMARK  123  A    between atoms: _316  and  _317
REMARK  124  A    between atoms: _317  and  _318
REMARK  125  A    between atoms: _323  and  _326
REMARK  126  A    between atoms: _326  and  _327
REMARK  127  A    between atoms: _327  and  _328
REMARK  128  A    between atoms: _337  and  _338
REMARK  129  A    between atoms: _346  and  _348
REMARK  130  A    between atoms: _348  and  _349
REMARK  131  A    between atoms: _348  and  _351
REMARK  132  A    between atoms: _351  and  _352
REMARK  133  A    between atoms: _355  and  _357
REMARK  134  A    between atoms: _357  and  _358
REMARK  135  A    between atoms: _357  and  _360
REMARK  136  A    between atoms: _360  and  _361
REMARK  137  A    between atoms: _366  and  _367
REMARK  138  A    between atoms: _369  and  _371
REMARK  139  A    between atoms: _371  and  _372
REMARK  140  A    between atoms: _371  and  _374
REMARK  141  A    between atoms: _374  and  _375
REMARK  142  A    between atoms: _381  and  _383
REMARK  143  A    between atoms: _383  and  _384
REMARK  144  A    between atoms: _383  and  _386
REMARK  145  A    between atoms: _386  and  _387
REMARK  146  A    between atoms: _392  and  _393
REMARK  147  A    between atoms: _395  and  _397
REMARK  148  A    between atoms: _397  and  _398
REMARK  149  A    between atoms: _397  and  _400
REMARK  150  A    between atoms: _400  and  _401
REMARK  151  A    between atoms: _401  and  _402
REMARK  152  A    between atoms: _402  and  _403
REMARK  153  A    between atoms: _412  and  _414
REMARK  154  A    between atoms: _414  and  _415
REMARK  155  A    between atoms: _414  and  _417
REMARK  156  A    between atoms: _417  and  _418
REMARK  157  A    between atoms: _418  and  _419
REMARK  158  A    between atoms: _422  and  _424
REMARK  159  A    between atoms: _424  and  _425
REMARK  160  A    between atoms: _427  and  _429
REMARK  161  A    between atoms: _429  and  _430
REMARK  162  A    between atoms: _429  and  _432
REMARK  163  A    between atoms: _432  and  _433
REMARK  164  A    between atoms: _439  and  _440
REMARK  165  A    between atoms: _445  and  _447
REMARK  166  A    between atoms: _447  and  _448
REMARK  167  A    between atoms: _447  and  _450
REMARK  168  A    between atoms: _450  and  _451
REMARK  169  A    between atoms: _457  and  _459
REMARK  170  A    between atoms: _459  and  _460
REMARK  171  A    between atoms: _459  and  _462
REMARK  172  A    between atoms: _462  and  _463
REMARK  173  A    between atoms: _468  and  _470
REMARK  174  A    between atoms: _470  and  _471
REMARK  175  A    between atoms: _470  and  _473
REMARK  176  A    between atoms: _473  and  _474
REMARK  177  A    between atoms: _474  and  _475
REMARK  178  A    between atoms: _475  and  _476
REMARK  179  A    between atoms: _476  and  ZN_722
REMARK  180  A    between atoms: _478  and  _480
REMARK  181  A    between atoms: _480  and  _481
REMARK  182  A    between atoms: _484  and  _486
REMARK  183  A    between atoms: _486  and  _487
REMARK  184  A    between atoms: _489  and  _491
REMARK  185  A    between atoms: _491  and  _492
REMARK  186  A    between atoms: _491  and  _494
REMARK  187  A    between atoms: _494  and  _495
REMARK  188  A    between atoms: _498  and  _500
REMARK  189  A    between atoms: _500  and  _501
REMARK  190  A    between atoms: _504  and  _506
REMARK  191  A    between atoms: _506  and  _507
REMARK  192  A    between atoms: _506  and  _509
REMARK  193  A    between atoms: _509  and  _510
REMARK  194  A    between atoms: _513  and  _515
REMARK  195  A    between atoms: _515  and  _516
REMARK  196  A    between atoms: _515  and  _518
REMARK  197  A    between atoms: _518  and  _519
REMARK  198  A    between atoms: _519  and  _520
REMARK  199  A    between atoms: _520  and  _521
REMARK  200  A    between atoms: _521  and  _522
REMARK  201  A    between atoms: _526  and  _528
REMARK  202  A    between atoms: _528  and  _529
REMARK  203  A    between atoms: _528  and  _531
REMARK  204  A    between atoms: _531  and  _532
REMARK  205  A    between atoms: _538  and  _540
REMARK  206  A    between atoms: _540  and  _541
REMARK  207  A    between atoms: _540  and  _543
REMARK  208  A    between atoms: _543  and  _544
REMARK  209  A    between atoms: _550  and  _552
REMARK  210  A    between atoms: _552  and  _553
REMARK  211  A    between atoms: _552  and  _555
REMARK  212  A    between atoms: _555  and  _556
REMARK  213  A    between atoms: _558  and  _560
REMARK  214  A    between atoms: _560  and  _561
REMARK  215  A    between atoms: _560  and  _563
REMARK  216  A    between atoms: _566  and  _568
REMARK  217  A    between atoms: _568  and  _569
REMARK  218  A    between atoms: _568  and  _571
REMARK  219  A    between atoms: _571  and  _572
REMARK  220  A    between atoms: _572  and  _573
REMARK  221  A    between atoms: _573  and  _574
REMARK  222  A    between atoms: _574  and  _575
REMARK  223  A    between atoms: _579  and  _581
REMARK  224  A    between atoms: _581  and  _582
REMARK  225  A    between atoms: _581  and  _584
REMARK  226  A    between atoms: _584  and  _585
REMARK  227  A    between atoms: _591  and  _593
REMARK  228  A    between atoms: _593  and  _594
REMARK  229  A    between atoms: _593  and  _596
REMARK  230  A    between atoms: _596  and  _597
REMARK  231  A    between atoms: _602  and  _604
REMARK  232  A    between atoms: _604  and  _605
REMARK  233  A    between atoms: _604  and  _607
REMARK  234  A    between atoms: _607  and  _608
REMARK  235  A    between atoms: _610  and  _612
REMARK  236  A    between atoms: _612  and  _613
REMARK  237  A    between atoms: _612  and  _615
REMARK  238  A    between atoms: _615  and  _616
REMARK  239  A    between atoms: _618  and  _620
REMARK  240  A    between atoms: _620  and  _621
REMARK  241  A    between atoms: _620  and  _623
REMARK  242  A    between atoms: _627  and  _628
REMARK  243  A    between atoms: _633  and  _635
REMARK  244  A    between atoms: _635  and  _636
REMARK  245  A    between atoms: _635  and  _638
REMARK  246  A    between atoms: _638  and  _639
REMARK  247  A    between atoms: _644  and  _645
REMARK  248  A    between atoms: _647  and  _649
REMARK  249  A    between atoms: _649  and  _650
REMARK  250  A    between atoms: _649  and  _652
REMARK  251  A    between atoms: _652  and  _653
REMARK  252  A    between atoms: _653  and  _654
REMARK  253  A    between atoms: _654  and  _655
REMARK  254  A    between atoms: _664  and  _666
REMARK  255  A    between atoms: _666  and  _667
REMARK  256  A    between atoms: _666  and  _669
REMARK  257  A    between atoms: _669  and  _670
REMARK  258  A    between atoms: _675  and  _676
REMARK  259  A    between atoms: _678  and  _680
REMARK  260  A    between atoms: _680  and  _681
REMARK  261  A    between atoms: _680  and  _683
REMARK  262  A    between atoms: _683  and  _684
REMARK  263  A    between atoms: _690  and  _692
REMARK  264  A    between atoms: _692  and  _693
REMARK  265  A    between atoms: _692  and  _695
REMARK  266  A    between atoms: _695  and  _696
REMARK  267  A    between atoms: _698  and  _700
REMARK  268  A    between atoms: _700  and  _701
REMARK  269  A    between atoms: _700  and  _703
REMARK  270  A    between atoms: _703  and  _704
REMARK  271  A    between atoms: _710  and  _712
REMARK  272  A    between atoms: _712  and  _713
REMARK  273  A    between atoms: _712  and  _715
REMARK  274  A    between atoms: _715  and  _716
REMARK  275  A    between atoms: _716  and  _717
REMARK                            x       y       z     vdW  Elec       q    Type
REMARK                         _______ _______ _______ _____ _____    ______ ____
ROOT
ATOM      1  CB  ASN A   1      39.782  26.330  35.466  0.00  0.00    +0.110 C 
ENDROOT
BRANCH   1   2
ATOM      2  CG  ASN A   1      39.394  27.161  36.710  0.00  0.00    +0.221 C 
ATOM      3  ND2 ASN A   1      40.277  27.211  37.696  0.00  0.00    -0.329 N 
ATOM      4 HD21 ASN A   1      40.084  27.790  38.538  0.00  0.00    +0.145 HD
ATOM      5 HD22 ASN A   1      41.163  26.671  37.628  0.00  0.00    +0.145 HD
ATOM      6  OD1 ASN A   1      38.340  27.780  36.749  0.00  0.00    -0.275 OA
ENDBRANCH   1   2
BRANCH   1   7
ATOM      7  CA  ASN A   1      39.256  24.873  35.505  0.00  0.00    +0.142 C 
BRANCH   7   8
ATOM      8  N   ASN A   1      39.593  24.187  34.270  0.00  0.00    -0.239 NA
ATOM      9  H   ASN A   1      38.911  24.227  33.485  0.00  0.00    +0.142 HD
ENDBRANCH   7   8
BRANCH   7  10
ATOM     10  C   ASN A   1      37.739  24.790  35.679  0.00  0.00    +0.225 C 
ATOM     11  O   ASN A   1      36.993  24.837  34.692  0.00  0.00    -0.287 OA
ENDBRANCH   7  10
ENDBRANCH   1   7
TORSDOF 4
REMARK  Name = ../refined-set-2016/2oc2/2oc2_pocket.pdb
REMARK  275 active torsions:
REMARK  status: ('A' for Active; 'I' for Inactive)
REMARK    1  A    between atoms: _1  and  _3
REMARK    2  A    between atoms: _3  and  _4
REMARK    3  A    between atoms: _3  and  _6
REMARK    4  A    between atoms: _6  and  _7
REMARK    5  A    between atoms: _12  and  _14
REMARK    6  A    between atoms: _14  and  _15
REMARK    7  A    between atoms: _14  and  _17
REMARK    8  A    between atoms: _17  and  _18
REMARK    9  A    between atoms: _23  and  _25
REMARK   10  A    between atoms: _25  and  _26
REMARK   11  A    between atoms: _25  and  _28
REMARK   12  A    between atoms: _28  and  _29
REMARK   13  A    between atoms: _29  and  _30
REMARK   14  A    between atoms: _33  and  _35
REMARK   15  A    between atoms: _35  and  _36
REMARK   16  A    between atoms: _35  and  _38
REMARK   17  A    between atoms: _38  and  _39
REMARK   18  A    between atoms: _44  and  _45
REMARK   19  A    between atoms: _47  and  _49
REMARK   20  A    between atoms: _49  and  _50
REMARK   21  A    between atoms: _49  and  _52
REMARK   22  A    between atoms: _52  and  _53
REMARK   23  A    between atoms: _53  and  _54
REMARK   24  A    between atoms: _57  and  _59
REMARK   25  A    between atoms: _59  and  _60
REMARK   26  A    between atoms: _59  and  _62
REMARK   27  A    between atoms: _62  and  _63
REMARK   28  A    between atoms: _68  and  _70
REMARK   29  A    between atoms: _70  and  _71
REMARK   30  A    between atoms: _70  and  _73
REMARK   31  A    between atoms: _73  and  _74
REMARK   32  A    between atoms: _84  and  _86
REMARK   33  A    between atoms: _86  and  _87
REMARK   34  A    between atoms: _86  and  _89
REMARK   35  A    between atoms: _89  and  _90
REMARK   36  A    between atoms: _90  and  _91
REMARK   37  A    between atoms: _96  and  _98
REMARK   38  A    between atoms: _98  and  _99
REMARK   39  A    between atoms: _98  and  _101
REMARK   40  A    between atoms: _101  and  _102
REMARK   41  A    between atoms: _105  and  _107
REMARK   42  A    between atoms: _107  and  _108
REMARK   43  A    between atoms: _107  and  _110
REMARK   44  A    between atoms: _113  and  _115
REMARK   45  A    between atoms: _115  and  _116
REMARK   46  A    between atoms: _115  and  _118
REMARK   47  A    between atoms: _118  and  _119
REMARK   48  A    between atoms: _119  and  _247
REMARK   49  A    between atoms: _120  and  _122
REMARK   50  A    between atoms: _122  and  _123
REMARK   51  A    between atoms: _122  and  _125
REMARK   52  A    between atoms: _125  and  _126
REMARK   53  A    between atoms: _131  and  _133
REMARK   54  A    between atoms: _133  and  _134
REMARK   55  A    between atoms: _137  and  _139
REMARK   56  A    between atoms: _139  and  _140
REMARK   57  A    between atoms: _139  and  _142
REMARK   58  A    between atoms: _142  and  _143
REMARK   59  A    between atoms: _145  and  _147
REMARK   60  A    between atoms: _147  and  _148
REMARK   61  A    between atoms: _151  and  _153
REMARK   62  A    between atoms: _153  and  _154
REMARK   63  A    between atoms: _153  and  _156
REMARK   64  A    between atoms: _156  and  _157
REMARK   65  A    between atoms: _167  and  _169
REMARK   66  A    between atoms: _169  and  _170
REMARK   67  A    between atoms: _169  and  _172
REMARK   68  A    between atoms: _172  and  _173
REMARK   69  A    between atoms: _176  and  _178
REMARK   70  A    between atoms: _178  and  _179
REMARK   71  A    between atoms: _178  and  _181
REMARK   72  A    between atoms: _181  and  _182
REMARK   73  A    between atoms: _187  and  _188
REMARK   74  A    between atoms: _190  and  _192
REMARK   75  A    between atoms: _192  and  _193
REMARK   76  A    between atoms: _192  and  _195
REMARK   77  A    between atoms: _195  and  _196
REMARK   78  A    between atoms: _196  and  _197
REMARK   79  A    between atoms: _197  and  _198
REMARK   80  A    between atoms: _207  and  _209
REMARK   81  A    between atoms: _209  and  _210
REMARK   82  A    between atoms: _209  and  _212
REMARK   83  A    between atoms: _212  and  _213
REMARK   84  A    between atoms: _216  and  _218
REMARK   85  A    between atoms: _218  and  _219
REMARK   86  A    between atoms: _218  and  _221
REMARK   87  A    between atoms: _221  and  _222
REMARK   88  A    between atoms: _222  and  _223
REMARK   89  A    between atoms: _223  and  _224
REMARK   90  A    between atoms: _224  and  _225
REMARK   91  A    between atoms: _229  and  _231
REMARK   92  A    between atoms: _231  and  _232
REMARK   93  A    between atoms: _231  and  _234
REMARK   94  A    between atoms: _234  and  _235
REMARK   95  A    between atoms: _235  and  _236
REMARK   96  A    between atoms: _241  and  _243
REMARK   97  A    between atoms: _243  and  _244
REMARK   98  A    between atoms: _243  and  _246
REMARK   99  A    between atoms: _246  and  _247
REMARK  100  A    between atoms: _248  and  _250
REMARK  101  A    between atoms: _250  and  _251
REMARK  102  A    between atoms: _250  and  _253
REMARK  103  A    between atoms: _253  and  _254
REMARK  104  A    between atoms: _254  and  _255
REMARK  105  A    between atoms: _258  and  _260
REMARK  106  A    between atoms: _260  and  _261
REMARK  107  A    between atoms: _260  and  _263
REMARK  108  A    between atoms: _263  and  _264
REMARK  109  A    between atoms: _267  and  _269
REMARK  110  A    between atoms: _269  and  _270
REMARK  111  A    between atoms: _269  and  _272
REMARK  112  A    between atoms: _275  and  _277
REMARK  113  A    between atoms: _277  and  _278
REMARK  114  A    between atoms: _277  and  _280
REMARK  115  A    between atoms: _283  and  _285
REMARK  116  A    between atoms: _285  and  _286
REMARK  117  A    between atoms: _289  and  _291
REMARK  118  A    between atoms: _291  and  _292
REMARK  119  A    between atoms: _291  and  _294
REMARK  120  A    between atoms: _294  and  _295
REMARK  121  A    between atoms: _300  and  _302
REMARK  122  A    between atoms: _313  and  _316
REMARK  123  A    between atoms: _316  and  _317
REMARK  124  A    between atoms: _317  and  _318
REMARK  125  A    between atoms: _323  and  _326
REMARK  126  A    between atoms: _326  and  _327
REMARK  127  A    between atoms: _327  and  _328
REMARK  128  A    between atoms: _337  and  _338
REMARK  129  A    between atoms: _346  and  _348
REMARK  130  A    between atoms: _348  and  _349
REMARK  131  A    between atoms: _348  and  _351
REMARK  132  A    between atoms: _351  and  _352
REMARK  133  A    between atoms: _355  and  _357
REMARK  134  A    between atoms: _357  and  _358
REMARK  135  A    between atoms: _357  and  _360
REMARK  136  A    between atoms: _360  and  _361
REMARK  137  A    between atoms: _366  and  _367
REMARK  138  A    between atoms: _369  and  _371
REMARK  139  A    between atoms: _371  and  _372
REMARK  140  A    between atoms: _371  and  _374
REMARK  141  A    between atoms: _374  and  _375
REMARK  142  A    between atoms: _381  and  _383
REMARK  143  A    between atoms: _383  and  _384
REMARK  144  A    between atoms: _383  and  _386
REMARK  145  A    between atoms: _386  and  _387
REMARK  146  A    between atoms: _392  and  _393
REMARK  147  A    between atoms: _395  and  _397
REMARK  148  A    between atoms: _397  and  _398
REMARK  149  A    between atoms: _397  and  _400
REMARK  150  A    between atoms: _400  and  _401
REMARK  151  A    between atoms: _401  and  _402
REMARK  152  A    between atoms: _402  and  _403
REMARK  153  A    between atoms: _412  and  _414
REMARK  154  A    between atoms: _414  and  _415
REMARK  155  A    between atoms: _414  and  _417
REMARK  156  A    between atoms: _417  and  _418
REMARK  157  A    between atoms: _418  and  _419
REMARK  158  A    between atoms: _422  and  _424
REMARK  159  A    between atoms: _424  and  _425
REMARK  160  A    between atoms: _427  and  _429
REMARK  161  A    between atoms: _429  and  _430
REMARK  162  A    between atoms: _429  and  _432
REMARK  163  A    between atoms: _432  and  _433
REMARK  164  A    between atoms: _439  and  _440
REMARK  165  A    between atoms: _445  and  _447
REMARK  166  A    between atoms: _447  and  _448
REMARK  167  A    between atoms: _447  and  _450
REMARK  168  A    between atoms: _450  and  _451
REMARK  169  A    between atoms: _457  and  _459
REMARK  170  A    between atoms: _459  and  _460
REMARK  171  A    between atoms: _459  and  _462
REMARK  172  A    between atoms: _462  and  _463
REMARK  173  A    between atoms: _468  and  _470
REMARK  174  A    between atoms: _470  and  _471
REMARK  175  A    between atoms: _470  and  _473
REMARK  176  A    between atoms: _473  and  _474
REMARK  177  A    between atoms: _474  and  _475
REMARK  178  A    between atoms: _475  and  _476
REMARK  179  A    between atoms: _476  and  ZN_722
REMARK  180  A    between atoms: _478  and  _480
REMARK  181  A    between atoms: _480  and  _481
REMARK  182  A    between atoms: _484  and  _486
REMARK  183  A    between atoms: _486  and  _487
REMARK  184  A    between atoms: _489  and  _491
REMARK  185  A    between atoms: _491  and  _492
REMARK  186  A    between atoms: _491  and  _494
REMARK  187  A    between atoms: _494  and  _495
REMARK  188  A    between atoms: _498  and  _500
REMARK  189  A    between atoms: _500  and  _501
REMARK  190  A    between atoms: _504  and  _506
REMARK  191  A    between atoms: _506  and  _507
REMARK  192  A    between atoms: _506  and  _509
REMARK  193  A    between atoms: _509  and  _510
REMARK  194  A    between atoms: _513  and  _515
REMARK  195  A    between atoms: _515  and  _516
REMARK  196  A    between atoms: _515  and  _518
REMARK  197  A    between atoms: _518  and  _519
REMARK  198  A    between atoms: _519  and  _520
REMARK  199  A    between atoms: _520  and  _521
REMARK  200  A    between atoms: _521  and  _522
REMARK  201  A    between atoms: _526  and  _528
REMARK  202  A    between atoms: _528  and  _529
REMARK  203  A    between atoms: _528  and  _531
REMARK  204  A    between atoms: _531  and  _532
REMARK  205  A    between atoms: _538  and  _540
REMARK  206  A    between atoms: _540  and  _541
REMARK  207  A    between atoms: _540  and  _543
REMARK  208  A    between atoms: _543  and  _544
REMARK  209  A    between atoms: _550  and  _552
REMARK  210  A    between atoms: _552  and  _553
REMARK  211  A    between atoms: _552  and  _555
REMARK  212  A    between atoms: _555  and  _556
REMARK  213  A    between atoms: _558  and  _560
REMARK  214  A    between atoms: _560  and  _561
REMARK  215  A    between atoms: _560  and  _563
REMARK  216  A    between atoms: _566  and  _568
REMARK  217  A    between atoms: _568  and  _569
REMARK  218  A    between atoms: _568  and  _571
REMARK  219  A    between atoms: _571  and  _572
REMARK  220  A    between atoms: _572  and  _573
REMARK  221  A    between atoms: _573  and  _574
REMARK  222  A    between atoms: _574  and  _575
REMARK  223  A    between atoms: _579  and  _581
REMARK  224  A    between atoms: _581  and  _582
REMARK  225  A    between atoms: _581  and  _584
REMARK  226  A    between atoms: _584  and  _585
REMARK  227  A    between atoms: _591  and  _593
REMARK  228  A    between atoms: _593  and  _594
REMARK  229  A    between atoms: _593  and  _596
REMARK  230  A    between atoms: _596  and  _597
REMARK  231  A    between atoms: _602  and  _604
REMARK  232  A    between atoms: _604  and  _605
REMARK  233  A    between atoms: _604  and  _607
REMARK  234  A    between atoms: _607  and  _608
REMARK  235  A    between atoms: _610  and  _612
REMARK  236  A    between atoms: _612  and  _613
REMARK  237  A    between atoms: _612  and  _615
REMARK  238  A    between atoms: _615  and  _616
REMARK  239  A    between atoms: _618  and  _620
REMARK  240  A    between atoms: _620  and  _621
REMARK  241  A    between atoms: _620  and  _623
REMARK  242  A    between atoms: _627  and  _628
REMARK  243  A    between atoms: _633  and  _635
REMARK  244  A    between atoms: _635  and  _636
REMARK  245  A    between atoms: _635  and  _638
REMARK  246  A    between atoms: _638  and  _639
REMARK  247  A    between atoms: _644  and  _645
REMARK  248  A    between atoms: _647  and  _649
REMARK  249  A    between atoms: _649  and  _650
REMARK  250  A    between atoms: _649  and  _652
REMARK  251  A    between atoms: _652  and  _653
REMARK  252  A    between atoms: _653  and  _654
REMARK  253  A    between atoms: _654  and  _655
REMARK  254  A    between atoms: _664  and  _666
REMARK  255  A    between atoms: _666  and  _667
REMARK  256  A    between atoms: _666  and  _669
REMARK  257  A    between atoms: _669  and  _670
REMARK  258  A    between atoms: _675  and  _676
REMARK  259  A    between atoms: _678  and  _680
REMARK  260  A    between atoms: _680  and  _681
REMARK  261  A    between atoms: _680  and  _683
REMARK  262  A    between atoms: _683  and  _684
REMARK  263  A    between atoms: _690  and  _692
REMARK  264  A    between atoms: _692  and  _693
REMARK  265  A    between atoms: _692  and  _695
REMARK  266  A    between atoms: _695  and  _696
REMARK  267  A    between atoms: _698  and  _700
REMARK  268  A    between atoms: _700  and  _701
REMARK  269  A    between atoms: _700  and  _703
REMARK  270  A    between atoms: _703  and  _704
REMARK  271  A    between atoms: _710  and  _712
REMARK  272  A    between atoms: _712  and  _713
REMARK  273  A    between atoms: _712  and  _715
REMARK  274  A    between atoms: _715  and  _716
REMARK  275  A    between atoms: _716  and  _717
REMARK                            x       y       z     vdW  Elec       q    Type
REMARK                         _______ _______ _______ _____ _____    ______ ____
ROOT
ATOM      1  CG  TRP A   1      34.374  28.536  38.806  0.00  0.00    -0.002 A 
ATOM      2  CD2 TRP A   1      35.320  27.994  39.737  0.00  0.00    +0.013 A 
ATOM      3  CE2 TRP A   1      34.587  27.506  40.840  0.00  0.00    +0.056 A 
ATOM      4  CZ2 TRP A   1      35.204  26.909  41.947  0.00  0.00    +0.017 A 
ATOM      5  CH2 TRP A   1      36.570  26.793  41.923  0.00  0.00    +0.001 A 
ATOM      6  CZ3 TRP A   1      37.331  27.272  40.828  0.00  0.00    +0.000 A 
ATOM      7  NE1 TRP A   1      33.261  27.748  40.588  0.00  0.00    -0.352 N 
ATOM      8  HE1 TRP A   1      32.472  27.511  41.223  0.00  0.00    +0.166 HD
ATOM      9  CE3 TRP A   1      36.719  27.858  39.737  0.00  0.00    +0.001 A 
ATOM     10  CD1 TRP A   1      33.143  28.356  39.358  0.00  0.00    +0.068 A 
ENDROOT
BRANCH   1  11
ATOM     11  CB  TRP A   1      34.677  29.122  37.461  0.00  0.00    +0.053 C 
BRANCH  11  12
ATOM     12  CA  TRP A   1      34.651  28.028  36.377  0.00  0.00    +0.137 C 
BRANCH  12  13
ATOM     13  N   TRP A   1      35.476  26.869  36.772  0.00  0.00    -0.239 NA
ATOM     14  H   TRP A   1      36.462  27.020  37.065  0.00  0.00    +0.142 HD
ENDBRANCH  12  13
BRANCH  12  15
ATOM     15  C   TRP A   1      35.012  28.570  34.988  0.00  0.00    +0.224 C 
ATOM     16  O   TRP A   1      34.460  29.579  34.549  0.00  0.00    -0.287 OA
ENDBRANCH  12  15
ENDBRANCH  11  12
ENDBRANCH   1  11
TORSDOF 4
REMARK  Name = ../refined-set-2016/2oc2/2oc2_pocket.pdb
REMARK  275 active torsions:
REMARK  status: ('A' for Active; 'I' for Inactive)
REMARK    1  A    between atoms: _1  and  _3
REMARK    2  A    between atoms: _3  and  _4
REMARK    3  A    between atoms: _3  and  _6
REMARK    4  A    between atoms: _6  and  _7
REMARK    5  A    between atoms: _12  and  _14
REMARK    6  A    between atoms: _14  and  _15
REMARK    7  A    between atoms: _14  and  _17
REMARK    8  A    between atoms: _17  and  _18
REMARK    9  A    between atoms: _23  and  _25
REMARK   10  A    between atoms: _25  and  _26
REMARK   11  A    between atoms: _25  and  _28
REMARK   12  A    between atoms: _28  and  _29
REMARK   13  A    between atoms: _29  and  _30
REMARK   14  A    between atoms: _33  and  _35
REMARK   15  A    between atoms: _35  and  _36
REMARK   16  A    between atoms: _35  and  _38
REMARK   17  A    between atoms: _38  and  _39
REMARK   18  A    between atoms: _44  and  _45
REMARK   19  A    between atoms: _47  and  _49
REMARK   20  A    between atoms: _49  and  _50
REMARK   21  A    between atoms: _49  and  _52
REMARK   22  A    between atoms: _52  and  _53
REMARK   23  A    between atoms: _53  and  _54
REMARK   24  A    between atoms: _57  and  _59
REMARK   25  A    between atoms: _59  and  _60
REMARK   26  A    between atoms: _59  and  _62
REMARK   27  A    between atoms: _62  and  _63
REMARK   28  A    between atoms: _68  and  _70
REMARK   29  A    between atoms: _70  and  _71
REMARK   30  A    between atoms: _70  and  _73
REMARK   31  A    between atoms: _73  and  _74
REMARK   32  A    between atoms: _84  and  _86
REMARK   33  A    between atoms: _86  and  _87
REMARK   34  A    between atoms: _86  and  _89
REMARK   35  A    between atoms: _89  and  _90
REMARK   36  A    between atoms: _90  and  _91
REMARK   37  A    between atoms: _96  and  _98
REMARK   38  A    between atoms: _98  and  _99
REMARK   39  A    between atoms: _98  and  _101
REMARK   40  A    between atoms: _101  and  _102
REMARK   41  A    between atoms: _105  and  _107
REMARK   42  A    between atoms: _107  and  _108
REMARK   43  A    between atoms: _107  and  _110
REMARK   44  A    between atoms: _113  and  _115
REMARK   45  A    between atoms: _115  and  _116
REMARK   46  A    between atoms: _115  and  _118
REMARK   47  A    between atoms: _118  and  _119
REMARK   48  A    between atoms: _119  and  _247
REMARK   49  A    between atoms: _120  and  _122
REMARK   50  A    between atoms: _122  and  _123
REMARK   51  A    between atoms: _122  and  _125
REMARK   52  A    between atoms: _125  and  _126
REMARK   53  A    between atoms: _131  and  _133
REMARK   54  A    between atoms: _133  and  _134
REMARK   55  A    between atoms: _137  and  _139
REMARK   56  A    between atoms: _139  and  _140
REMARK   57  A    between atoms: _139  and  _142
REMARK   58  A    between atoms: _142  and  _143
REMARK   59  A    between atoms: _145  and  _147
REMARK   60  A    between atoms: _147  and  _148
REMARK   61  A    between atoms: _151  and  _153
REMARK   62  A    between atoms: _153  and  _154
REMARK   63  A    between atoms: _153  and  _156
REMARK   64  A    between atoms: _156  and  _157
REMARK   65  A    between atoms: _167  and  _169
REMARK   66  A    between atoms: _169  and  _170
REMARK   67  A    between atoms: _169  and  _172
REMARK   68  A    between atoms: _172  and  _173
REMARK   69  A    between atoms: _176  and  _178
REMARK   70  A    between atoms: _178  and  _179
REMARK   71  A    between atoms: _178  and  _181
REMARK   72  A    between atoms: _181  and  _182
REMARK   73  A    between atoms: _187  and  _188
REMARK   74  A    between atoms: _190  and  _192
REMARK   75  A    between atoms: _192  and  _193
REMARK   76  A    between atoms: _192  and  _195
REMARK   77  A    between atoms: _195  and  _196
REMARK   78  A    between atoms: _196  and  _197
REMARK   79  A    between atoms: _197  and  _198
REMARK   80  A    between atoms: _207  and  _209
REMARK   81  A    between atoms: _209  and  _210
REMARK   82  A    between atoms: _209  and  _212
REMARK   83  A    between atoms: _212  and  _213
REMARK   84  A    between atoms: _216  and  _218
REMARK   85  A    between atoms: _218  and  _219
REMARK   86  A    between atoms: _218  and  _221
REMARK   87  A    between atoms: _221  and  _222
REMARK   88  A    between atoms: _222  and  _223
REMARK   89  A    between atoms: _223  and  _224
REMARK   90  A    between atoms: _224  and  _225
REMARK   91  A    between atoms: _229  and  _231
REMARK   92  A    between atoms: _231  and  _232
REMARK   93  A    between atoms: _231  and  _234
REMARK   94  A    between atoms: _234  and  _235
REMARK   95  A    between atoms: _235  and  _236
REMARK   96  A    between atoms: _241  and  _243
REMARK   97  A    between atoms: _243  and  _244
REMARK   98  A    between atoms: _243  and  _246
REMARK   99  A    between atoms: _246  and  _247
REMARK  100  A    between atoms: _248  and  _250
REMARK  101  A    between atoms: _250  and  _251
REMARK  102  A    between atoms: _250  and  _253
REMARK  103  A    between atoms: _253  and  _254
REMARK  104  A    between atoms: _254  and  _255
REMARK  105  A    between atoms: _258  and  _260
REMARK  106  A    between atoms: _260  and  _261
REMARK  107  A    between atoms: _260  and  _263
REMARK  108  A    between atoms: _263  and  _264
REMARK  109  A    between atoms: _267  and  _269
REMARK  110  A    between atoms: _269  and  _270
REMARK  111  A    between atoms: _269  and  _272
REMARK  112  A    between atoms: _275  and  _277
REMARK  113  A    between atoms: _277  and  _278
REMARK  114  A    between atoms: _277  and  _280
REMARK  115  A    between atoms: _283  and  _285
REMARK  116  A    between atoms: _285  and  _286
REMARK  117  A    between atoms: _289  and  _291
REMARK  118  A    between atoms: _291  and  _292
REMARK  119  A    between atoms: _291  and  _294
REMARK  120  A    between atoms: _294  and  _295
REMARK  121  A    between atoms: _300  and  _302
REMARK  122  A    between atoms: _313  and  _316
REMARK  123  A    between atoms: _316  and  _317
REMARK  124  A    between atoms: _317  and  _318
REMARK  125  A    between atoms: _323  and  _326
REMARK  126  A    between atoms: _326  and  _327
REMARK  127  A    between atoms: _327  and  _328
REMARK  128  A    between atoms: _337  and  _338
REMARK  129  A    between atoms: _346  and  _348
REMARK  130  A    between atoms: _348  and  _349
REMARK  131  A    between atoms: _348  and  _351
REMARK  132  A    between atoms: _351  and  _352
REMARK  133  A    between atoms: _355  and  _357
REMARK  134  A    between atoms: _357  and  _358
REMARK  135  A    between atoms: _357  and  _360
REMARK  136  A    between atoms: _360  and  _361
REMARK  137  A    between atoms: _366  and  _367
REMARK  138  A    between atoms: _369  and  _371
REMARK  139  A    between atoms: _371  and  _372
REMARK  140  A    between atoms: _371  and  _374
REMARK  141  A    between atoms: _374  and  _375
REMARK  142  A    between atoms: _381  and  _383
REMARK  143  A    between atoms: _383  and  _384
REMARK  144  A    between atoms: _383  and  _386
REMARK  145  A    between atoms: _386  and  _387
REMARK  146  A    between atoms: _392  and  _393
REMARK  147  A    between atoms: _395  and  _397
REMARK  148  A    between atoms: _397  and  _398
REMARK  149  A    between atoms: _397  and  _400
REMARK  150  A    between atoms: _400  and  _401
REMARK  151  A    between atoms: _401  and  _402
REMARK  152  A    between atoms: _402  and  _403
REMARK  153  A    between atoms: _412  and  _414
REMARK  154  A    between atoms: _414  and  _415
REMARK  155  A    between atoms: _414  and  _417
REMARK  156  A    between atoms: _417  and  _418
REMARK  157  A    between atoms: _418  and  _419
REMARK  158  A    between atoms: _422  and  _424
REMARK  159  A    between atoms: _424  and  _425
REMARK  160  A    between atoms: _427  and  _429
REMARK  161  A    between atoms: _429  and  _430
REMARK  162  A    between atoms: _429  and  _432
REMARK  163  A    between atoms: _432  and  _433
REMARK  164  A    between atoms: _439  and  _440
REMARK  165  A    between atoms: _445  and  _447
REMARK  166  A    between atoms: _447  and  _448
REMARK  167  A    between atoms: _447  and  _450
REMARK  168  A    between atoms: _450  and  _451
REMARK  169  A    between atoms: _457  and  _459
REMARK  170  A    between atoms: _459  and  _460
REMARK  171  A    between atoms: _459  and  _462
REMARK  172  A    between atoms: _462  and  _463
REMARK  173  A    between atoms: _468  and  _470
REMARK  174  A    between atoms: _470  and  _471
REMARK  175  A    between atoms: _470  and  _473
REMARK  176  A    between atoms: _473  and  _474
REMARK  177  A    between atoms: _474  and  _475
REMARK  178  A    between atoms: _475  and  _476
REMARK  179  A    between atoms: _476  and  ZN_722
REMARK  180  A    between atoms: _478  and  _480
REMARK  181  A    between atoms: _480  and  _481
REMARK  182  A    between atoms: _484  and  _486
REMARK  183  A    between atoms: _486  and  _487
REMARK  184  A    between atoms: _489  and  _491
REMARK  185  A    between atoms: _491  and  _492
REMARK  186  A    between atoms: _491  and  _494
REMARK  187  A    between atoms: _494  and  _495
REMARK  188  A    between atoms: _498  and  _500
REMARK  189  A    between atoms: _500  and  _501
REMARK  190  A    between atoms: _504  and  _506
REMARK  191  A    between atoms: _506  and  _507
REMARK  192  A    between atoms: _506  and  _509
REMARK  193  A    between atoms: _509  and  _510
REMARK  194  A    between atoms: _513  and  _515
REMARK  195  A    between atoms: _515  and  _516
REMARK  196  A    between atoms: _515  and  _518
REMARK  197  A    between atoms: _518  and  _519
REMARK  198  A    between atoms: _519  and  _520
REMARK  199  A    between atoms: _520  and  _521
REMARK  200  A    between atoms: _521  and  _522
REMARK  201  A    between atoms: _526  and  _528
REMARK  202  A    between atoms: _528  and  _529
REMARK  203  A    between atoms: _528  and  _531
REMARK  204  A    between atoms: _531  and  _532
REMARK  205  A    between atoms: _538  and  _540
REMARK  206  A    between atoms: _540  and  _541
REMARK  207  A    between atoms: _540  and  _543
REMARK  208  A    between atoms: _543  and  _544
REMARK  209  A    between atoms: _550  and  _552
REMARK  210  A    between atoms: _552  and  _553
REMARK  211  A    between atoms: _552  and  _555
REMARK  212  A    between atoms: _555  and  _556
REMARK  213  A    between atoms: _558  and  _560
REMARK  214  A    between atoms: _560  and  _561
REMARK  215  A    between atoms: _560  and  _563
REMARK  216  A    between atoms: _566  and  _568
REMARK  217  A    between atoms: _568  and  _569
REMARK  218  A    between atoms: _568  and  _571
REMARK  219  A    between atoms: _571  and  _572
REMARK  220  A    between atoms: _572  and  _573
REMARK  221  A    between atoms: _573  and  _574
REMARK  222  A    between atoms: _574  and  _575
REMARK  223  A    between atoms: _579  and  _581
REMARK  224  A    between atoms: _581  and  _582
REMARK  225  A    between atoms: _581  and  _584
REMARK  226  A    between atoms: _584  and  _585
REMARK  227  A    between atoms: _591  and  _593
REMARK  228  A    between atoms: _593  and  _594
REMARK  229  A    between atoms: _593  and  _596
REMARK  230  A    between atoms: _596  and  _597
REMARK  231  A    between atoms: _602  and  _604
REMARK  232  A    between atoms: _604  and  _605
REMARK  233  A    between atoms: _604  and  _607
REMARK  234  A    between atoms: _607  and  _608
REMARK  235  A    between atoms: _610  and  _612
REMARK  236  A    between atoms: _612  and  _613
REMARK  237  A    between atoms: _612  and  _615
REMARK  238  A    between atoms: _615  and  _616
REMARK  239  A    between atoms: _618  and  _620
REMARK  240  A    between atoms: _620  and  _621
REMARK  241  A    between atoms: _620  and  _623
REMARK  242  A    between atoms: _627  and  _628
REMARK  243  A    between atoms: _633  and  _635
REMARK  244  A    between atoms: _635  and  _636
REMARK  245  A    between atoms: _635  and  _638
REMARK  246  A    between atoms: _638  and  _639
REMARK  247  A    between atoms: _644  and  _645
REMARK  248  A    between atoms: _647  and  _649
REMARK  249  A    between atoms: _649  and  _650
REMARK  250  A    between atoms: _649  and  _652
REMARK  251  A    between atoms: _652  and  _653
REMARK  252  A    between atoms: _653  and  _654
REMARK  253  A    between atoms: _654  and  _655
REMARK  254  A    between atoms: _664  and  _666
REMARK  255  A    between atoms: _666  and  _667
REMARK  256  A    between atoms: _666  and  _669
REMARK  257  A    between atoms: _669  and  _670
REMARK  258  A    between atoms: _675  and  _676
REMARK  259  A    between atoms: _678  and  _680
REMARK  260  A    between atoms: _680  and  _681
REMARK  261  A    between atoms: _680  and  _683
REMARK  262  A    between atoms: _683  and  _684
REMARK  263  A    between atoms: _690  and  _692
REMARK  264  A    between atoms: _692  and  _693
REMARK  265  A    between atoms: _692  and  _695
REMARK  266  A    between atoms: _695  and  _696
REMARK  267  A    between atoms: _698  and  _700
REMARK  268  A    between atoms: _700  and  _701
REMARK  269  A    between atoms: _700  and  _703
REMARK  270  A    between atoms: _703  and  _704
REMARK  271  A    between atoms: _710  and  _712
REMARK  272  A    between atoms: _712  and  _713
REMARK  273  A    between atoms: _712  and  _715
REMARK  274  A    between atoms: _715  and  _716
REMARK  275  A    between atoms: _716  and  _717
REMARK                            x       y       z     vdW  Elec       q    Type
REMARK                         _______ _______ _______ _____ _____    ______ ____
ROOT
ATOM      1  C   GLN A   1      39.505  31.558  34.071  0.00  0.00    +0.238 C 
ATOM      2  N   THR A   2      40.245  30.452  34.188  0.00  0.00    -0.296 N 
ATOM      3  H   THR A   2      39.828  29.618  34.647  0.00  0.00    +0.150 HD
ATOM      4  O   GLN A   1      39.955  32.639  33.682  0.00  0.00    -0.274 OA
ENDROOT
BRANCH   1   5
ATOM      5  CA  GLN A   1      38.037  31.434  34.482  0.00  0.00    +0.145 C 
BRANCH   5   6
ATOM      6  N   GLN A   1      37.530  30.093  34.222  0.00  0.00    -0.238 NA
ATOM      7  H   GLN A   1      37.629  29.375  34.968  0.00  0.00    +0.142 HD
ENDBRANCH   5   6
BRANCH   5   8
ATOM      8  CB  GLN A   1      37.854  31.790  35.957  0.00  0.00    +0.036 C 
BRANCH   8   9
ATOM      9  CG  GLN A   1      38.791  31.082  36.922  0.00  0.00    +0.087 C 
BRANCH   9  10
ATOM     10  CD  GLN A   1      38.330  31.164  38.375  0.00  0.00    +0.219 C 
ATOM     11  NE2 GLN A   1      39.283  31.322  39.282  0.00  0.00    -0.329 N 
ATOM     12 HE21 GLN A   1      39.038  31.364  40.292  0.00  0.00    +0.145 HD
ATOM     13 HE22 GLN A   1      40.276  31.405  38.984  0.00  0.00    +0.145 HD
ATOM     14  OE1 GLN A   1      37.136  31.061  38.676  0.00  0.00    -0.275 OA
ENDBRANCH   9  10
ENDBRANCH   8   9
ENDBRANCH   5   8
ENDBRANCH   1   5
BRANCH   2  15
ATOM     15  CA  THR A   2      41.608  30.370  33.699  0.00  0.00    +0.164 C 
BRANCH  15  16
ATOM     16  CB  THR A   2      42.671  30.439  34.836  0.00  0.00    +0.136 C 
ATOM     17  CG2 THR A   2      42.735  31.817  35.427  0.00  0.00    +0.034 C 
BRANCH  16  18
ATOM     18  OG1 THR A   2      42.336  29.519  35.874  0.00  0.00    -0.382 OA
ATOM     19  HG1 THR A   2      43.017  29.570  36.591  0.00  0.00    +0.210 HD
ENDBRANCH  16  18
ENDBRANCH  15  16
BRANCH  15  20
ATOM     20  C   THR A   2      41.727  29.102  32.853  0.00  0.00    +0.229 C 
ATOM     21  O   THR A   2      41.044  28.102  33.118  0.00  0.00    -0.286 OA
ENDBRANCH  15  20
ENDBRANCH   2  15
TORSDOF 9
REMARK  Name = ../refined-set-2016/2oc2/2oc2_pocket.pdb
REMARK  275 active torsions:
REMARK  status: ('A' for Active; 'I' for Inactive)
REMARK    1  A    between atoms: _1  and  _3
REMARK    2  A    between atoms: _3  and  _4
REMARK    3  A    between atoms: _3  and  _6
REMARK    4  A    between atoms: _6  and  _7
REMARK    5  A    between atoms: _12  and  _14
REMARK    6  A    between atoms: _14  and  _15
REMARK    7  A    between atoms: _14  and  _17
REMARK    8  A    between atoms: _17  and  _18
REMARK    9  A    between atoms: _23  and  _25
REMARK   10  A    between atoms: _25  and  _26
REMARK   11  A    between atoms: _25  and  _28
REMARK   12  A    between atoms: _28  and  _29
REMARK   13  A    between atoms: _29  and  _30
REMARK   14  A    between atoms: _33  and  _35
REMARK   15  A    between atoms: _35  and  _36
REMARK   16  A    between atoms: _35  and  _38
REMARK   17  A    between atoms: _38  and  _39
REMARK   18  A    between atoms: _44  and  _45
REMARK   19  A    between atoms: _47  and  _49
REMARK   20  A    between atoms: _49  and  _50
REMARK   21  A    between atoms: _49  and  _52
REMARK   22  A    between atoms: _52  and  _53
REMARK   23  A    between atoms: _53  and  _54
REMARK   24  A    between atoms: _57  and  _59
REMARK   25  A    between atoms: _59  and  _60
REMARK   26  A    between atoms: _59  and  _62
REMARK   27  A    between atoms: _62  and  _63
REMARK   28  A    between atoms: _68  and  _70
REMARK   29  A    between atoms: _70  and  _71
REMARK   30  A    between atoms: _70  and  _73
REMARK   31  A    between atoms: _73  and  _74
REMARK   32  A    between atoms: _84  and  _86
REMARK   33  A    between atoms: _86  and  _87
REMARK   34  A    between atoms: _86  and  _89
REMARK   35  A    between atoms: _89  and  _90
REMARK   36  A    between atoms: _90  and  _91
REMARK   37  A    between atoms: _96  and  _98
REMARK   38  A    between atoms: _98  and  _99
REMARK   39  A    between atoms: _98  and  _101
REMARK   40  A    between atoms: _101  and  _102
REMARK   41  A    between atoms: _105  and  _107
REMARK   42  A    between atoms: _107  and  _108
REMARK   43  A    between atoms: _107  and  _110
REMARK   44  A    between atoms: _113  and  _115
REMARK   45  A    between atoms: _115  and  _116
REMARK   46  A    between atoms: _115  and  _118
REMARK   47  A    between atoms: _118  and  _119
REMARK   48  A    between atoms: _119  and  _247
REMARK   49  A    between atoms: _120  and  _122
REMARK   50  A    between atoms: _122  and  _123
REMARK   51  A    between atoms: _122  and  _125
REMARK   52  A    between atoms: _125  and  _126
REMARK   53  A    between atoms: _131  and  _133
REMARK   54  A    between atoms: _133  and  _134
REMARK   55  A    between atoms: _137  and  _139
REMARK   56  A    between atoms: _139  and  _140
REMARK   57  A    between atoms: _139  and  _142
REMARK   58  A    between atoms: _142  and  _143
REMARK   59  A    between atoms: _145  and  _147
REMARK   60  A    between atoms: _147  and  _148
REMARK   61  A    between atoms: _151  and  _153
REMARK   62  A    between atoms: _153  and  _154
REMARK   63  A    between atoms: _153  and  _156
REMARK   64  A    between atoms: _156  and  _157
REMARK   65  A    between atoms: _167  and  _169
REMARK   66  A    between atoms: _169  and  _170
REMARK   67  A    between atoms: _169  and  _172
REMARK   68  A    between atoms: _172  and  _173
REMARK   69  A    between atoms: _176  and  _178
REMARK   70  A    between atoms: _178  and  _179
REMARK   71  A    between atoms: _178  and  _181
REMARK   72  A    between atoms: _181  and  _182
REMARK   73  A    between atoms: _187  and  _188
REMARK   74  A    between atoms: _190  and  _192
REMARK   75  A    between atoms: _192  and  _193
REMARK   76  A    between atoms: _192  and  _195
REMARK   77  A    between atoms: _195  and  _196
REMARK   78  A    between atoms: _196  and  _197
REMARK   79  A    between atoms: _197  and  _198
REMARK   80  A    between atoms: _207  and  _209
REMARK   81  A    between atoms: _209  and  _210
REMARK   82  A    between atoms: _209  and  _212
REMARK   83  A    between atoms: _212  and  _213
REMARK   84  A    between atoms: _216  and  _218
REMARK   85  A    between atoms: _218  and  _219
REMARK   86  A    between atoms: _218  and  _221
REMARK   87  A    between atoms: _221  and  _222
REMARK   88  A    between atoms: _222  and  _223
REMARK   89  A    between atoms: _223  and  _224
REMARK   90  A    between atoms: _224  and  _225
REMARK   91  A    between atoms: _229  and  _231
REMARK   92  A    between atoms: _231  and  _232
REMARK   93  A    between atoms: _231  and  _234
REMARK   94  A    between atoms: _234  and  _235
REMARK   95  A    between atoms: _235  and  _236
REMARK   96  A    between atoms: _241  and  _243
REMARK   97  A    between atoms: _243  and  _244
REMARK   98  A    between atoms: _243  and  _246
REMARK   99  A    between atoms: _246  and  _247
REMARK  100  A    between atoms: _248  and  _250
REMARK  101  A    between atoms: _250  and  _251
REMARK  102  A    between atoms: _250  and  _253
REMARK  103  A    between atoms: _253  and  _254
REMARK  104  A    between atoms: _254  and  _255
REMARK  105  A    between atoms: _258  and  _260
REMARK  106  A    between atoms: _260  and  _261
REMARK  107  A    between atoms: _260  and  _263
REMARK  108  A    between atoms: _263  and  _264
REMARK  109  A    between atoms: _267  and  _269
REMARK  110  A    between atoms: _269  and  _270
REMARK  111  A    between atoms: _269  and  _272
REMARK  112  A    between atoms: _275  and  _277
REMARK  113  A    between atoms: _277  and  _278
REMARK  114  A    between atoms: _277  and  _280
REMARK  115  A    between atoms: _283  and  _285
REMARK  116  A    between atoms: _285  and  _286
REMARK  117  A    between atoms: _289  and  _291
REMARK  118  A    between atoms: _291  and  _292
REMARK  119  A    between atoms: _291  and  _294
REMARK  120  A    between atoms: _294  and  _295
REMARK  121  A    between atoms: _300  and  _302
REMARK  122  A    between atoms: _313  and  _316
REMARK  123  A    between atoms: _316  and  _317
REMARK  124  A    between atoms: _317  and  _318
REMARK  125  A    between atoms: _323  and  _326
REMARK  126  A    between atoms: _326  and  _327
REMARK  127  A    between atoms: _327  and  _328
REMARK  128  A    between atoms: _337  and  _338
REMARK  129  A    between atoms: _346  and  _348
REMARK  130  A    between atoms: _348  and  _349
REMARK  131  A    between atoms: _348  and  _351
REMARK  132  A    between atoms: _351  and  _352
REMARK  133  A    between atoms: _355  and  _357
REMARK  134  A    between atoms: _357  and  _358
REMARK  135  A    between atoms: _357  and  _360
REMARK  136  A    between atoms: _360  and  _361
REMARK  137  A    between atoms: _366  and  _367
REMARK  138  A    between atoms: _369  and  _371
REMARK  139  A    between atoms: _371  and  _372
REMARK  140  A    between atoms: _371  and  _374
REMARK  141  A    between atoms: _374  and  _375
REMARK  142  A    between atoms: _381  and  _383
REMARK  143  A    between atoms: _383  and  _384
REMARK  144  A    between atoms: _383  and  _386
REMARK  145  A    between atoms: _386  and  _387
REMARK  146  A    between atoms: _392  and  _393
REMARK  147  A    between atoms: _395  and  _397
REMARK  148  A    between atoms: _397  and  _398
REMARK  149  A    between atoms: _397  and  _400
REMARK  150  A    between atoms: _400  and  _401
REMARK  151  A    between atoms: _401  and  _402
REMARK  152  A    between atoms: _402  and  _403
REMARK  153  A    between atoms: _412  and  _414
REMARK  154  A    between atoms: _414  and  _415
REMARK  155  A    between atoms: _414  and  _417
REMARK  156  A    between atoms: _417  and  _418
REMARK  157  A    between atoms: _418  and  _419
REMARK  158  A    between atoms: _422  and  _424
REMARK  159  A    between atoms: _424  and  _425
REMARK  160  A    between atoms: _427  and  _429
REMARK  161  A    between atoms: _429  and  _430
REMARK  162  A    between atoms: _429  and  _432
REMARK  163  A    between atoms: _432  and  _433
REMARK  164  A    between atoms: _439  and  _440
REMARK  165  A    between atoms: _445  and  _447
REMARK  166  A    between atoms: _447  and  _448
REMARK  167  A    between atoms: _447  and  _450
REMARK  168  A    between atoms: _450  and  _451
REMARK  169  A    between atoms: _457  and  _459
REMARK  170  A    between atoms: _459  and  _460
REMARK  171  A    between atoms: _459  and  _462
REMARK  172  A    between atoms: _462  and  _463
REMARK  173  A    between atoms: _468  and  _470
REMARK  174  A    between atoms: _470  and  _471
REMARK  175  A    between atoms: _470  and  _473
REMARK  176  A    between atoms: _473  and  _474
REMARK  177  A    between atoms: _474  and  _475
REMARK  178  A    between atoms: _475  and  _476
REMARK  179  A    between atoms: _476  and  ZN_722
REMARK  180  A    between atoms: _478  and  _480
REMARK  181  A    between atoms: _480  and  _481
REMARK  182  A    between atoms: _484  and  _486
REMARK  183  A    between atoms: _486  and  _487
REMARK  184  A    between atoms: _489  and  _491
REMARK  185  A    between atoms: _491  and  _492
REMARK  186  A    between atoms: _491  and  _494
REMARK  187  A    between atoms: _494  and  _495
REMARK  188  A    between atoms: _498  and  _500
REMARK  189  A    between atoms: _500  and  _501
REMARK  190  A    between atoms: _504  and  _506
REMARK  191  A    between atoms: _506  and  _507
REMARK  192  A    between atoms: _506  and  _509
REMARK  193  A    between atoms: _509  and  _510
REMARK  194  A    between atoms: _513  and  _515
REMARK  195  A    between atoms: _515  and  _516
REMARK  196  A    between atoms: _515  and  _518
REMARK  197  A    between atoms: _518  and  _519
REMARK  198  A    between atoms: _519  and  _520
REMARK  199  A    between atoms: _520  and  _521
REMARK  200  A    between atoms: _521  and  _522
REMARK  201  A    between atoms: _526  and  _528
REMARK  202  A    between atoms: _528  and  _529
REMARK  203  A    between atoms: _528  and  _531
REMARK  204  A    between atoms: _531  and  _532
REMARK  205  A    between atoms: _538  and  _540
REMARK  206  A    between atoms: _540  and  _541
REMARK  207  A    between atoms: _540  and  _543
REMARK  208  A    between atoms: _543  and  _544
REMARK  209  A    between atoms: _550  and  _552
REMARK  210  A    between atoms: _552  and  _553
REMARK  211  A    between atoms: _552  and  _555
REMARK  212  A    between atoms: _555  and  _556
REMARK  213  A    between atoms: _558  and  _560
REMARK  214  A    between atoms: _560  and  _561
REMARK  215  A    between atoms: _560  and  _563
REMARK  216  A    between atoms: _566  and  _568
REMARK  217  A    between atoms: _568  and  _569
REMARK  218  A    between atoms: _568  and  _571
REMARK  219  A    between atoms: _571  and  _572
REMARK  220  A    between atoms: _572  and  _573
REMARK  221  A    between atoms: _573  and  _574
REMARK  222  A    between atoms: _574  and  _575
REMARK  223  A    between atoms: _579  and  _581
REMARK  224  A    between atoms: _581  and  _582
REMARK  225  A    between atoms: _581  and  _584
REMARK  226  A    between atoms: _584  and  _585
REMARK  227  A    between atoms: _591  and  _593
REMARK  228  A    between atoms: _593  and  _594
REMARK  229  A    between atoms: _593  and  _596
REMARK  230  A    between atoms: _596  and  _597
REMARK  231  A    between atoms: _602  and  _604
REMARK  232  A    between atoms: _604  and  _605
REMARK  233  A    between atoms: _604  and  _607
REMARK  234  A    between atoms: _607  and  _608
REMARK  235  A    between atoms: _610  and  _612
REMARK  236  A    between atoms: _612  and  _613
REMARK  237  A    between atoms: _612  and  _615
REMARK  238  A    between atoms: _615  and  _616
REMARK  239  A    between atoms: _618  and  _620
REMARK  240  A    between atoms: _620  and  _621
REMARK  241  A    between atoms: _620  and  _623
REMARK  242  A    between atoms: _627  and  _628
REMARK  243  A    between atoms: _633  and  _635
REMARK  244  A    between atoms: _635  and  _636
REMARK  245  A    between atoms: _635  and  _638
REMARK  246  A    between atoms: _638  and  _639
REMARK  247  A    between atoms: _644  and  _645
REMARK  248  A    between atoms: _647  and  _649
REMARK  249  A    between atoms: _649  and  _650
REMARK  250  A    between atoms: _649  and  _652
REMARK  251  A    between atoms: _652  and  _653
REMARK  252  A    between atoms: _653  and  _654
REMARK  253  A    between atoms: _654  and  _655
REMARK  254  A    between atoms: _664  and  _666
REMARK  255  A    between atoms: _666  and  _667
REMARK  256  A    between atoms: _666  and  _669
REMARK  257  A    between atoms: _669  and  _670
REMARK  258  A    between atoms: _675  and  _676
REMARK  259  A    between atoms: _678  and  _680
REMARK  260  A    between atoms: _680  and  _681
REMARK  261  A    between atoms: _680  and  _683
REMARK  262  A    between atoms: _683  and  _684
REMARK  263  A    between atoms: _690  and  _692
REMARK  264  A    between atoms: _692  and  _693
REMARK  265  A    between atoms: _692  and  _695
REMARK  266  A    between atoms: _695  and  _696
REMARK  267  A    between atoms: _698  and  _700
REMARK  268  A    between atoms: _700  and  _701
REMARK  269  A    between atoms: _700  and  _703
REMARK  270  A    between atoms: _703  and  _704
REMARK  271  A    between atoms: _710  and  _712
REMARK  272  A    between atoms: _712  and  _713
REMARK  273  A    between atoms: _712  and  _715
REMARK  274  A    between atoms: _715  and  _716
REMARK  275  A    between atoms: _716  and  _717
REMARK                            x       y       z     vdW  Elec       q    Type
REMARK                         _______ _______ _______ _____ _____    ______ ____
ROOT
ATOM      1  CA  ILE A   2      39.970  25.730  51.645  0.00  0.00    +0.160 C 
ENDROOT
BRANCH   1   4
ATOM      2  C   ARG A   1      38.769  26.717  53.541  0.00  0.00    +0.238 C 
ATOM      3  O   ARG A   1      39.791  27.238  54.004  0.00  0.00    -0.274 OA
ATOM      4  N   ILE A   2      38.753  26.000  52.416  0.00  0.00    -0.297 N 
ATOM      5  H   ILE A   2      37.847  25.620  52.075  0.00  0.00    +0.150 HD
BRANCH   2   6
ATOM      6  CA  ARG A   1      37.444  26.829  54.281  0.00  0.00    +0.145 C 
BRANCH   6   7
ATOM      7  CB  ARG A   1      37.173  28.324  54.627  0.00  0.00    +0.025 C 
ATOM      8  CG2 ARG A   1      36.041  28.468  55.645  0.00  0.00    +0.002 C 
ATOM      9  CG1 ARG A   1      36.859  29.129  53.361  0.00  0.00    +0.002 C 
ENDBRANCH   6   7
BRANCH   6  10
ATOM     10  N   ARG A   1      37.589  25.983  55.466  0.00  0.00    -0.238 NA
ATOM     11  H   ARG A   1      37.819  26.432  56.375  0.00  0.00    +0.142 HD
ENDBRANCH   6  10
ENDBRANCH   2   6
ENDBRANCH   1   4
BRANCH   1  12
ATOM     12  C   ILE A   2      40.368  26.854  50.694  0.00  0.00    +0.242 C 
ATOM     13  O   ILE A   2      41.553  26.986  50.373  0.00  0.00    -0.273 OA
ATOM     14  N   HIS A   3      39.395  27.643  50.230  0.00  0.00    -0.297 N 
ATOM     15  H   HIS A   3      38.403  27.422  50.453  0.00  0.00    +0.150 HD
BRANCH  14  16
ATOM     16  CA  HIS A   3      39.710  28.819  49.409  0.00  0.00    +0.155 C 
BRANCH  16  17
ATOM     17  C   HIS A   3      40.595  29.751  50.223  0.00  0.00    +0.241 C 
ATOM     18  O   HIS A   3      40.223  30.173  51.316  0.00  0.00    -0.273 OA
ATOM     19  N   ALA A   4      41.775  30.037  49.679  0.00  0.00    -0.297 N 
ATOM     20  H   ALA A   4      41.949  29.747  48.696  0.00  0.00    +0.150 HD
BRANCH  19  21
ATOM     21  CA  ALA A   4      42.835  30.737  50.393  0.00  0.00    +0.149 C 
ATOM     22  CB  ALA A   4      44.122  30.711  49.583  0.00  0.00    +0.031 C 
BRANCH  21  23
ATOM     23  C   ALA A   4      42.467  32.167  50.783  0.00  0.00    +0.241 C 
ATOM     24  N   SER A   5      43.183  32.680  51.784  0.00  0.00    -0.295 N 
ATOM     25  H   SER A   5      43.856  32.060  52.278  0.00  0.00    +0.150 HD
ATOM     26  O   ALA A   4      41.547  32.770  50.212  0.00  0.00    -0.273 OA
BRANCH  24  27
ATOM     27  CA  SER A   5      43.071  34.062  52.220  0.00  0.00    +0.178 C 
BRANCH  27  28
ATOM     28  C   SER A   5      44.304  34.471  53.026  0.00  0.00    +0.243 C 
ATOM     29  O   SER A   5      45.042  33.620  53.530  0.00  0.00    -0.273 OA
ATOM     30  N   ALA A   6      44.535  35.776  53.114  0.00  0.00    -0.297 N 
ATOM     31  H   ALA A   6      43.912  36.430  52.598  0.00  0.00    +0.150 HD
BRANCH  30  32
ATOM     32  CA  ALA A   6      45.622  36.324  53.901  0.00  0.00    +0.149 C 
ATOM     33  CB  ALA A   6      46.573  37.123  53.021  0.00  0.00    +0.031 C 
BRANCH  32  34
ATOM     34  C   ALA A   6      45.040  37.193  55.011  0.00  0.00    +0.241 C 
ATOM     35  N   TRP A   7      45.625  37.079  56.196  0.00  0.00    -0.297 N 
ATOM     36  H   TRP A   7      46.555  36.618  56.262  0.00  0.00    +0.150 HD
ATOM     37  O   ALA A   6      44.099  37.963  54.798  0.00  0.00    -0.273 OA
BRANCH  35  38
ATOM     38  CA  TRP A   7      44.994  37.585  57.405  0.00  0.00    +0.153 C 
BRANCH  38  39
ATOM     39  C   TRP A   7      45.780  38.707  58.054  0.00  0.00    +0.241 C 
ATOM     40  N   ASP A   8      45.073  39.786  58.368  0.00  0.00    -0.298 N 
ATOM     41  H   ASP A   8      44.104  39.872  58.000  0.00  0.00    +0.150 HD
ATOM     42  O   TRP A   7      46.991  38.606  58.238  0.00  0.00    -0.273 OA
BRANCH  40  43
ATOM     43  CA  ASP A   8      45.599  40.855  59.207  0.00  0.00    +0.148 C 
BRANCH  43  44
ATOM     44  C   ASP A   8      44.888  40.798  60.570  0.00  0.00    +0.227 C 
ATOM     45  O   ASP A   8      43.657  40.883  60.649  0.00  0.00    -0.286 OA
ENDBRANCH  43  44
BRANCH  43  46
ATOM     46  CB  ASP A   8      45.409  42.221  58.536  0.00  0.00    +0.142 C 
BRANCH  46  47
ATOM     47  CG  ASP A   8      46.292  43.308  59.148  0.00  0.00    +0.367 C 
ATOM     48  OD2 ASP A   8      46.706  43.150  60.312  0.00  0.00    -0.246 OA
ATOM     49  OD1 ASP A   8      46.569  44.320  58.463  0.00  0.00    -0.246 OA
ENDBRANCH  46  47
ENDBRANCH  43  46
ENDBRANCH  40  43
ENDBRANCH  38  39
BRANCH  38  50
ATOM     50  CB  TRP A   7      44.767  36.431  58.392  0.00  0.00    +0.057 C 
BRANCH  50  51
ATOM     51  CG  TRP A   7      43.772  35.415  57.905  0.00  0.00    -0.002 A 
ATOM     52  CD2 TRP A   7      42.460  35.175  58.432  0.00  0.00    +0.013 A 
ATOM     53  CE3 TRP A   7      41.713  35.741  59.477  0.00  0.00    +0.001 A 
ATOM     54  CZ3 TRP A   7      40.427  35.263  59.714  0.00  0.00    +0.000 A 
ATOM     55  CH2 TRP A   7      39.884  34.223  58.937  0.00  0.00    +0.001 A 
ATOM     56  CZ2 TRP A   7      40.593  33.647  57.906  0.00  0.00    +0.017 A 
ATOM     57  CE2 TRP A   7      41.880  34.133  57.660  0.00  0.00    +0.056 A 
ATOM     58  NE1 TRP A   7      42.801  33.755  56.717  0.00  0.00    -0.352 N 
ATOM     59  HE1 TRP A   7      42.666  33.012  56.002  0.00  0.00    +0.166 HD
ATOM     60  CD1 TRP A   7      43.936  34.523  56.873  0.00  0.00    +0.068 A 
ENDBRANCH  50  51
ENDBRANCH  38  50
ENDBRANCH  35  38
ENDBRANCH  32  34
ENDBRANCH  30  32
ENDBRANCH  27  28
BRANCH  27  61
ATOM     61  CB  SER A   5      41.769  34.318  53.001  0.00  0.00    +0.166 C 
BRANCH  61  62
ATOM     62  OG  SER A   5      41.478  33.284  53.922  0.00  0.00    -0.380 OA
ATOM     63  H   SER A   5      40.635  33.494  54.397  0.00  0.00    +0.211 HD
ENDBRANCH  61  62
ENDBRANCH  27  61
ENDBRANCH  24  27
ENDBRANCH  21  23
ENDBRANCH  19  21
ENDBRANCH  16  17
BRANCH  16  64
ATOM     64  CB  HIS A   3      38.453  29.547  48.945  0.00  0.00    +0.076 C 
BRANCH  64  65
ATOM     65  CG  HIS A   3      38.694  30.524  47.836  0.00  0.00    +0.082 A 
ATOM     66  CD2 HIS A   3      38.910  31.861  47.854  0.00  0.00    +0.115 A 
ATOM     67  NE2 HIS A   3      39.074  32.263  46.551  0.00  0.00    -0.221 NA
ATOM     68  CE1 HIS A   3      38.968  31.210  45.761  0.00  0.00    +0.199 A 
ATOM     69  ND1 HIS A   3      38.744  30.147  46.512  0.00  0.00    -0.227 NA
ENDBRANCH  64  65
ENDBRANCH  16  64
ENDBRANCH  14  16
ENDBRANCH   1  12
BRANCH   1  70
ATOM     70  CB  ILE A   2      39.876  24.406  50.881  0.00  0.00    +0.098 C 
BRANCH  70  71
ATOM     71  SG  ILE A   2      40.808  23.024  51.604  0.00  0.00    -0.080 S 
BRANCH  71  72
ATOM     72  SG  SER A   5      42.576  23.834  52.228  0.00  0.00    -0.080 S 
BRANCH  72  73
ATOM     73  CB  SER A   5      43.660  23.804  50.781  0.00  0.00    +0.096 C 
BRANCH  73  74
ATOM     74  CA  SER A   5      45.086  24.317  51.048  0.00  0.00    +0.149 C 
BRANCH  74  75
ATOM     75  N   SER A   5      45.092  25.772  51.258  0.00  0.00    -0.297 N 
ATOM     76  C   ALA A   4      45.975  26.382  52.054  0.00  0.00    +0.241 C 
ATOM     77  O   ALA A   4      46.764  25.775  52.782  0.00  0.00    -0.273 OA
ATOM     78  H   SER A   5      44.380  26.350  50.767  0.00  0.00    +0.150 HD
BRANCH  76  79
ATOM     79  CA  ALA A   4      45.962  27.909  52.034  0.00  0.00    +0.149 C 
BRANCH  79  80
ATOM     80  N   ALA A   4      46.043  28.482  53.384  0.00  0.00    -0.297 N 
ATOM     81  H   ALA A   4      46.670  28.041  54.087  0.00  0.00    +0.150 HD
ATOM     82  C   HIS A   3      45.331  29.553  53.727  0.00  0.00    +0.241 C 
ATOM     83  O   HIS A   3      44.552  30.111  52.956  0.00  0.00    -0.273 OA
BRANCH  82  84
ATOM     84  CA  HIS A   3      45.537  30.093  55.135  0.00  0.00    +0.149 C 
BRANCH  84  85
ATOM     85  N   HIS A   3      46.252  31.357  55.023  0.00  0.00    -0.297 N 
ATOM     86  C   ILE A   2      47.400  31.586  55.657  0.00  0.00    +0.241 C 
ATOM     87  O   ILE A   2      47.851  30.832  56.517  0.00  0.00    -0.273 OA
ATOM     88  H   HIS A   3      45.851  32.108  54.426  0.00  0.00    +0.150 HD
BRANCH  86  89
ATOM     89  CA  ILE A   2      48.138  32.882  55.289  0.00  0.00    +0.148 C 
BRANCH  89  90
ATOM     90  N   ILE A   2      48.783  33.404  56.487  0.00  0.00    -0.297 N 
ATOM     91  C   ARG A   1      48.369  34.505  57.112  0.00  0.00    +0.238 C 
ATOM     92  O   ARG A   1      47.544  35.291  56.642  0.00  0.00    -0.274 OA
ATOM     93  H   ILE A   2      49.604  32.894  56.871  0.00  0.00    +0.150 HD
BRANCH  91  94
ATOM     94  CA  ARG A   1      48.982  34.751  58.474  0.00  0.00    +0.145 C 
BRANCH  94  95
ATOM     95  N   ARG A   1      48.976  36.172  58.816  0.00  0.00    -0.238 NA
ATOM     96  H   ARG A   1      48.118  36.732  58.638  0.00  0.00    +0.142 HD
ENDBRANCH  94  95
BRANCH  94  97
ATOM     97  CB  ARG A   1      48.197  33.940  59.510  0.00  0.00    +0.030 C 
BRANCH  97  98
ATOM     98  CG  ARG A   1      48.598  34.161  60.962  0.00  0.00    +0.045 C 
BRANCH  98  99
ATOM     99  CD  ARG A   1      47.621  33.446  61.877  0.00  0.00    +0.174 C 
BRANCH  99 100
ATOM    100  NE  ARG A   1      47.638  33.973  63.240  0.00  0.00    -0.265 N 
ATOM    101  CZ  ARG A   1      46.780  33.612  64.191  0.00  0.00    +0.342 C 
ATOM    102  NH2 ARG A   1      46.867  34.146  65.403  0.00  0.00    -0.292 N 
ATOM    103 HH21 ARG A   1      46.196  33.863  66.145  0.00  0.00    +0.255 HD
ATOM    104 HH22 ARG A   1      47.606  34.847  65.610  0.00  0.00    +0.255 HD
ATOM    105  NH1 ARG A   1      45.830  32.718  63.928  0.00  0.00    -0.292 N 
ATOM    106 HH11 ARG A   1      45.160  32.437  64.672  0.00  0.00    +0.255 HD
ATOM    107 HH12 ARG A   1      45.757  32.300  62.978  0.00  0.00    +0.255 HD
ATOM    108  HE  ARG A   1      48.367  34.674  63.482  0.00  0.00    +0.259 HD
ENDBRANCH  99 100
ENDBRANCH  98  99
ENDBRANCH  97  98
ENDBRANCH  94  97
ENDBRANCH  91  94
ENDBRANCH  89  90
BRANCH  89 109
ATOM    109  CB  ILE A   2      49.166  32.664  54.127  0.00  0.00    +0.027 C 
ATOM    110  CG2 ILE A   2      48.620  31.713  53.045  0.00  0.00    +0.002 C 
BRANCH 109 111
ATOM    111  CG1 ILE A   2      49.534  34.008  53.491  0.00  0.00    +0.002 C 
ATOM    112  CD1 ILE A   2      50.775  33.979  52.590  0.00  0.00    +0.000 C 
ENDBRANCH 109 111
ENDBRANCH  89 109
ENDBRANCH  86  89
ENDBRANCH  84  85
BRANCH  84 113
ATOM    113  CB  HIS A   3      44.195  30.291  55.847  0.00  0.00    +0.029 C 
BRANCH 113 114
ATOM    114  CG  HIS A   3      43.350  29.020  55.992  0.00  0.00    +0.000 C 
BRANCH 114 115
ATOM    115  CD  HIS A   3      41.877  29.319  56.278  0.00  0.00    -0.024 C 
BRANCH 115 116
ATOM    116  CE  HIS A   3      41.190  30.101  55.148  0.00  0.00    -0.086 C 
BRANCH 116 117
ATOM    117  NZ  HIS A   3      41.363  29.489  53.791  0.00  0.00    +0.380 N 
ATOM    118  HZ1 HIS A   3      40.960  28.530  53.791  0.00  0.00    -0.089 HD
ATOM    119  HZ2 HIS A   3      42.376  29.441  53.560  0.00  0.00    -0.089 HD
ATOM    120  HZ3 HIS A   3      40.872  30.073  53.084  0.00  0.00    -0.089 HD
ENDBRANCH 116 117
ENDBRANCH 115 116
ENDBRANCH 114 115
ENDBRANCH 113 114
ENDBRANCH  84 113
ENDBRANCH  82  84
ENDBRANCH  79  80
BRANCH  79 121
ATOM    121  CB  ALA A   4      47.115  28.438  51.174  0.00  0.00    +0.039 C 
BRANCH 121 122
ATOM    122  CG  ALA A   4      46.950  28.231  49.680  0.00  0.00    +0.087 C 
BRANCH 122 123
ATOM    123  CD  ALA A   4      47.909  29.070  48.872  0.00  0.00    +0.219 C 
ATOM    124  OE1 ALA A   4      48.276  30.172  49.275  0.00  0.00    -0.275 OA
ATOM    125  NE2 ALA A   4      48.315  28.557  47.712  0.00  0.00    -0.329 N 
ATOM    126 HE21 ALA A   4      47.978  27.620  47.411  0.00  0.00    +0.145 HD
ATOM    127 HE22 ALA A   4      48.969  29.093  47.107  0.00  0.00    +0.145 HD
ENDBRANCH 122 123
ENDBRANCH 121 122
ENDBRANCH  79 121
ENDBRANCH  76  79
ENDBRANCH  74  75
BRANCH  74 128
ATOM    128  C   SER A   5      46.009  23.984  49.877  0.00  0.00    +0.228 C 
ATOM    129  O   SER A   5      45.556  23.501  48.833  0.00  0.00    -0.286 OA
ENDBRANCH  74 128
ENDBRANCH  73  74
ENDBRANCH  72  73
ENDBRANCH  71  72
ENDBRANCH  70  71
ENDBRANCH   1  70
TORSDOF 54
REMARK  Name = ../refined-set-2016/2oc2/2oc2_pocket.pdb
REMARK  275 active torsions:
REMARK  status: ('A' for Active; 'I' for Inactive)
REMARK    1  A    between atoms: _1  and  _3
REMARK    2  A    between atoms: _3  and  _4
REMARK    3  A    between atoms: _3  and  _6
REMARK    4  A    between atoms: _6  and  _7
REMARK    5  A    between atoms: _12  and  _14
REMARK    6  A    between atoms: _14  and  _15
REMARK    7  A    between atoms: _14  and  _17
REMARK    8  A    between atoms: _17  and  _18
REMARK    9  A    between atoms: _23  and  _25
REMARK   10  A    between atoms: _25  and  _26
REMARK   11  A    between atoms: _25  and  _28
REMARK   12  A    between atoms: _28  and  _29
REMARK   13  A    between atoms: _29  and  _30
REMARK   14  A    between atoms: _33  and  _35
REMARK   15  A    between atoms: _35  and  _36
REMARK   16  A    between atoms: _35  and  _38
REMARK   17  A    between atoms: _38  and  _39
REMARK   18  A    between atoms: _44  and  _45
REMARK   19  A    between atoms: _47  and  _49
REMARK   20  A    between atoms: _49  and  _50
REMARK   21  A    between atoms: _49  and  _52
REMARK   22  A    between atoms: _52  and  _53
REMARK   23  A    between atoms: _53  and  _54
REMARK   24  A    between atoms: _57  and  _59
REMARK   25  A    between atoms: _59  and  _60
REMARK   26  A    between atoms: _59  and  _62
REMARK   27  A    between atoms: _62  and  _63
REMARK   28  A    between atoms: _68  and  _70
REMARK   29  A    between atoms: _70  and  _71
REMARK   30  A    between atoms: _70  and  _73
REMARK   31  A    between atoms: _73  and  _74
REMARK   32  A    between atoms: _84  and  _86
REMARK   33  A    between atoms: _86  and  _87
REMARK   34  A    between atoms: _86  and  _89
REMARK   35  A    between atoms: _89  and  _90
REMARK   36  A    between atoms: _90  and  _91
REMARK   37  A    between atoms: _96  and  _98
REMARK   38  A    between atoms: _98  and  _99
REMARK   39  A    between atoms: _98  and  _101
REMARK   40  A    between atoms: _101  and  _102
REMARK   41  A    between atoms: _105  and  _107
REMARK   42  A    between atoms: _107  and  _108
REMARK   43  A    between atoms: _107  and  _110
REMARK   44  A    between atoms: _113  and  _115
REMARK   45  A    between atoms: _115  and  _116
REMARK   46  A    between atoms: _115  and  _118
REMARK   47  A    between atoms: _118  and  _119
REMARK   48  A    between atoms: _119  and  _247
REMARK   49  A    between atoms: _120  and  _122
REMARK   50  A    between atoms: _122  and  _123
REMARK   51  A    between atoms: _122  and  _125
REMARK   52  A    between atoms: _125  and  _126
REMARK   53  A    between atoms: _131  and  _133
REMARK   54  A    between atoms: _133  and  _134
REMARK   55  A    between atoms: _137  and  _139
REMARK   56  A    between atoms: _139  and  _140
REMARK   57  A    between atoms: _139  and  _142
REMARK   58  A    between atoms: _142  and  _143
REMARK   59  A    between atoms: _145  and  _147
REMARK   60  A    between atoms: _147  and  _148
REMARK   61  A    between atoms: _151  and  _153
REMARK   62  A    between atoms: _153  and  _154
REMARK   63  A    between atoms: _153  and  _156
REMARK   64  A    between atoms: _156  and  _157
REMARK   65  A    between atoms: _167  and  _169
REMARK   66  A    between atoms: _169  and  _170
REMARK   67  A    between atoms: _169  and  _172
REMARK   68  A    between atoms: _172  and  _173
REMARK   69  A    between atoms: _176  and  _178
REMARK   70  A    between atoms: _178  and  _179
REMARK   71  A    between atoms: _178  and  _181
REMARK   72  A    between atoms: _181  and  _182
REMARK   73  A    between atoms: _187  and  _188
REMARK   74  A    between atoms: _190  and  _192
REMARK   75  A    between atoms: _192  and  _193
REMARK   76  A    between atoms: _192  and  _195
REMARK   77  A    between atoms: _195  and  _196
REMARK   78  A    between atoms: _196  and  _197
REMARK   79  A    between atoms: _197  and  _198
REMARK   80  A    between atoms: _207  and  _209
REMARK   81  A    between atoms: _209  and  _210
REMARK   82  A    between atoms: _209  and  _212
REMARK   83  A    between atoms: _212  and  _213
REMARK   84  A    between atoms: _216  and  _218
REMARK   85  A    between atoms: _218  and  _219
REMARK   86  A    between atoms: _218  and  _221
REMARK   87  A    between atoms: _221  and  _222
REMARK   88  A    between atoms: _222  and  _223
REMARK   89  A    between atoms: _223  and  _224
REMARK   90  A    between atoms: _224  and  _225
REMARK   91  A    between atoms: _229  and  _231
REMARK   92  A    between atoms: _231  and  _232
REMARK   93  A    between atoms: _231  and  _234
REMARK   94  A    between atoms: _234  and  _235
REMARK   95  A    between atoms: _235  and  _236
REMARK   96  A    between atoms: _241  and  _243
REMARK   97  A    between atoms: _243  and  _244
REMARK   98  A    between atoms: _243  and  _246
REMARK   99  A    between atoms: _246  and  _247
REMARK  100  A    between atoms: _248  and  _250
REMARK  101  A    between atoms: _250  and  _251
REMARK  102  A    between atoms: _250  and  _253
REMARK  103  A    between atoms: _253  and  _254
REMARK  104  A    between atoms: _254  and  _255
REMARK  105  A    between atoms: _258  and  _260
REMARK  106  A    between atoms: _260  and  _261
REMARK  107  A    between atoms: _260  and  _263
REMARK  108  A    between atoms: _263  and  _264
REMARK  109  A    between atoms: _267  and  _269
REMARK  110  A    between atoms: _269  and  _270
REMARK  111  A    between atoms: _269  and  _272
REMARK  112  A    between atoms: _275  and  _277
REMARK  113  A    between atoms: _277  and  _278
REMARK  114  A    between atoms: _277  and  _280
REMARK  115  A    between atoms: _283  and  _285
REMARK  116  A    between atoms: _285  and  _286
REMARK  117  A    between atoms: _289  and  _291
REMARK  118  A    between atoms: _291  and  _292
REMARK  119  A    between atoms: _291  and  _294
REMARK  120  A    between atoms: _294  and  _295
REMARK  121  A    between atoms: _300  and  _302
REMARK  122  A    between atoms: _313  and  _316
REMARK  123  A    between atoms: _316  and  _317
REMARK  124  A    between atoms: _317  and  _318
REMARK  125  A    between atoms: _323  and  _326
REMARK  126  A    between atoms: _326  and  _327
REMARK  127  A    between atoms: _327  and  _328
REMARK  128  A    between atoms: _337  and  _338
REMARK  129  A    between atoms: _346  and  _348
REMARK  130  A    between atoms: _348  and  _349
REMARK  131  A    between atoms: _348  and  _351
REMARK  132  A    between atoms: _351  and  _352
REMARK  133  A    between atoms: _355  and  _357
REMARK  134  A    between atoms: _357  and  _358
REMARK  135  A    between atoms: _357  and  _360
REMARK  136  A    between atoms: _360  and  _361
REMARK  137  A    between atoms: _366  and  _367
REMARK  138  A    between atoms: _369  and  _371
REMARK  139  A    between atoms: _371  and  _372
REMARK  140  A    between atoms: _371  and  _374
REMARK  141  A    between atoms: _374  and  _375
REMARK  142  A    between atoms: _381  and  _383
REMARK  143  A    between atoms: _383  and  _384
REMARK  144  A    between atoms: _383  and  _386
REMARK  145  A    between atoms: _386  and  _387
REMARK  146  A    between atoms: _392  and  _393
REMARK  147  A    between atoms: _395  and  _397
REMARK  148  A    between atoms: _397  and  _398
REMARK  149  A    between atoms: _397  and  _400
REMARK  150  A    between atoms: _400  and  _401
REMARK  151  A    between atoms: _401  and  _402
REMARK  152  A    between atoms: _402  and  _403
REMARK  153  A    between atoms: _412  and  _414
REMARK  154  A    between atoms: _414  and  _415
REMARK  155  A    between atoms: _414  and  _417
REMARK  156  A    between atoms: _417  and  _418
REMARK  157  A    between atoms: _418  and  _419
REMARK  158  A    between atoms: _422  and  _424
REMARK  159  A    between atoms: _424  and  _425
REMARK  160  A    between atoms: _427  and  _429
REMARK  161  A    between atoms: _429  and  _430
REMARK  162  A    between atoms: _429  and  _432
REMARK  163  A    between atoms: _432  and  _433
REMARK  164  A    between atoms: _439  and  _440
REMARK  165  A    between atoms: _445  and  _447
REMARK  166  A    between atoms: _447  and  _448
REMARK  167  A    between atoms: _447  and  _450
REMARK  168  A    between atoms: _450  and  _451
REMARK  169  A    between atoms: _457  and  _459
REMARK  170  A    between atoms: _459  and  _460
REMARK  171  A    between atoms: _459  and  _462
REMARK  172  A    between atoms: _462  and  _463
REMARK  173  A    between atoms: _468  and  _470
REMARK  174  A    between atoms: _470  and  _471
REMARK  175  A    between atoms: _470  and  _473
REMARK  176  A    between atoms: _473  and  _474
REMARK  177  A    between atoms: _474  and  _475
REMARK  178  A    between atoms: _475  and  _476
REMARK  179  A    between atoms: _476  and  ZN_722
REMARK  180  A    between atoms: _478  and  _480
REMARK  181  A    between atoms: _480  and  _481
REMARK  182  A    between atoms: _484  and  _486
REMARK  183  A    between atoms: _486  and  _487
REMARK  184  A    between atoms: _489  and  _491
REMARK  185  A    between atoms: _491  and  _492
REMARK  186  A    between atoms: _491  and  _494
REMARK  187  A    between atoms: _494  and  _495
REMARK  188  A    between atoms: _498  and  _500
REMARK  189  A    between atoms: _500  and  _501
REMARK  190  A    between atoms: _504  and  _506
REMARK  191  A    between atoms: _506  and  _507
REMARK  192  A    between atoms: _506  and  _509
REMARK  193  A    between atoms: _509  and  _510
REMARK  194  A    between atoms: _513  and  _515
REMARK  195  A    between atoms: _515  and  _516
REMARK  196  A    between atoms: _515  and  _518
REMARK  197  A    between atoms: _518  and  _519
REMARK  198  A    between atoms: _519  and  _520
REMARK  199  A    between atoms: _520  and  _521
REMARK  200  A    between atoms: _521  and  _522
REMARK  201  A    between atoms: _526  and  _528
REMARK  202  A    between atoms: _528  and  _529
REMARK  203  A    between atoms: _528  and  _531
REMARK  204  A    between atoms: _531  and  _532
REMARK  205  A    between atoms: _538  and  _540
REMARK  206  A    between atoms: _540  and  _541
REMARK  207  A    between atoms: _540  and  _543
REMARK  208  A    between atoms: _543  and  _544
REMARK  209  A    between atoms: _550  and  _552
REMARK  210  A    between atoms: _552  and  _553
REMARK  211  A    between atoms: _552  and  _555
REMARK  212  A    between atoms: _555  and  _556
REMARK  213  A    between atoms: _558  and  _560
REMARK  214  A    between atoms: _560  and  _561
REMARK  215  A    between atoms: _560  and  _563
REMARK  216  A    between atoms: _566  and  _568
REMARK  217  A    between atoms: _568  and  _569
REMARK  218  A    between atoms: _568  and  _571
REMARK  219  A    between atoms: _571  and  _572
REMARK  220  A    between atoms: _572  and  _573
REMARK  221  A    between atoms: _573  and  _574
REMARK  222  A    between atoms: _574  and  _575
REMARK  223  A    between atoms: _579  and  _581
REMARK  224  A    between atoms: _581  and  _582
REMARK  225  A    between atoms: _581  and  _584
REMARK  226  A    between atoms: _584  and  _585
REMARK  227  A    between atoms: _591  and  _593
REMARK  228  A    between atoms: _593  and  _594
REMARK  229  A    between atoms: _593  and  _596
REMARK  230  A    between atoms: _596  and  _597
REMARK  231  A    between atoms: _602  and  _604
REMARK  232  A    between atoms: _604  and  _605
REMARK  233  A    between atoms: _604  and  _607
REMARK  234  A    between atoms: _607  and  _608
REMARK  235  A    between atoms: _610  and  _612
REMARK  236  A    between atoms: _612  and  _613
REMARK  237  A    between atoms: _612  and  _615
REMARK  238  A    between atoms: _615  and  _616
REMARK  239  A    between atoms: _618  and  _620
REMARK  240  A    between atoms: _620  and  _621
REMARK  241  A    between atoms: _620  and  _623
REMARK  242  A    between atoms: _627  and  _628
REMARK  243  A    between atoms: _633  and  _635
REMARK  244  A    between atoms: _635  and  _636
REMARK  245  A    between atoms: _635  and  _638
REMARK  246  A    between atoms: _638  and  _639
REMARK  247  A    between atoms: _644  and  _645
REMARK  248  A    between atoms: _647  and  _649
REMARK  249  A    between atoms: _649  and  _650
REMARK  250  A    between atoms: _649  and  _652
REMARK  251  A    between atoms: _652  and  _653
REMARK  252  A    between atoms: _653  and  _654
REMARK  253  A    between atoms: _654  and  _655
REMARK  254  A    between atoms: _664  and  _666
REMARK  255  A    between atoms: _666  and  _667
REMARK  256  A    between atoms: _666  and  _669
REMARK  257  A    between atoms: _669  and  _670
REMARK  258  A    between atoms: _675  and  _676
REMARK  259  A    between atoms: _678  and  _680
REMARK  260  A    between atoms: _680  and  _681
REMARK  261  A    between atoms: _680  and  _683
REMARK  262  A    between atoms: _683  and  _684
REMARK  263  A    between atoms: _690  and  _692
REMARK  264  A    between atoms: _692  and  _693
REMARK  265  A    between atoms: _692  and  _695
REMARK  266  A    between atoms: _695  and  _696
REMARK  267  A    between atoms: _698  and  _700
REMARK  268  A    between atoms: _700  and  _701
REMARK  269  A    between atoms: _700  and  _703
REMARK  270  A    between atoms: _703  and  _704
REMARK  271  A    between atoms: _710  and  _712
REMARK  272  A    between atoms: _712  and  _713
REMARK  273  A    between atoms: _712  and  _715
REMARK  274  A    between atoms: _715  and  _716
REMARK  275  A    between atoms: _716  and  _717
REMARK                            x       y       z     vdW  Elec       q    Type
REMARK                         _______ _______ _______ _____ _____    ______ ____
ROOT
ATOM      1  CG  TYR A   1      43.324  44.632  62.360  0.00  0.00    -0.020 A 
ATOM      2  CD2 TYR A   1      42.322  43.667  62.267  0.00  0.00    -0.001 A 
ATOM      3  CE2 TYR A   1      41.585  43.507  61.109  0.00  0.00    +0.036 A 
ATOM      4  CZ  TYR A   1      41.850  44.311  60.015  0.00  0.00    +0.134 A 
ATOM      5  CE1 TYR A   1      42.851  45.273  60.067  0.00  0.00    +0.036 A 
ATOM      6  CD1 TYR A   1      43.582  45.430  61.243  0.00  0.00    -0.001 A 
ENDROOT
BRANCH   4   7
ATOM      7  OH  TYR A   1      41.114  44.145  58.865  0.00  0.00    -0.506 OA
ATOM      8  HH  TYR A   1      41.719  43.902  58.120  0.00  0.00    +0.292 HD
ENDBRANCH   4   7
BRANCH   1   9
ATOM      9  CB  TYR A   1      44.121  44.793  63.630  0.00  0.00    +0.051 C 
BRANCH   9  10
ATOM     10  CA  TYR A   1      45.566  44.306  63.502  0.00  0.00    +0.137 C 
BRANCH  10  11
ATOM     11  N   TYR A   1      45.607  42.909  63.036  0.00  0.00    -0.239 NA
ATOM     12  H   TYR A   1      45.951  42.734  62.070  0.00  0.00    +0.142 HD
ENDBRANCH  10  11
BRANCH  10  13
ATOM     13  C   TYR A   1      46.386  44.665  64.746  0.00  0.00    +0.224 C 
ATOM     14  O   TYR A   1      45.921  45.394  65.613  0.00  0.00    -0.287 OA
ENDBRANCH  10  13
ENDBRANCH   9  10
ENDBRANCH   1   9
TORSDOF 5
REMARK  Name = ../refined-set-2016/2oc2/2oc2_pocket.pdb
REMARK  275 active torsions:
REMARK  status: ('A' for Active; 'I' for Inactive)
REMARK    1  A    between atoms: _1  and  _3
REMARK    2  A    between atoms: _3  and  _4
REMARK    3  A    between atoms: _3  and  _6
REMARK    4  A    between atoms: _6  and  _7
REMARK    5  A    between atoms: _12  and  _14
REMARK    6  A    between atoms: _14  and  _15
REMARK    7  A    between atoms: _14  and  _17
REMARK    8  A    between atoms: _17  and  _18
REMARK    9  A    between atoms: _23  and  _25
REMARK   10  A    between atoms: _25  and  _26
REMARK   11  A    between atoms: _25  and  _28
REMARK   12  A    between atoms: _28  and  _29
REMARK   13  A    between atoms: _29  and  _30
REMARK   14  A    between atoms: _33  and  _35
REMARK   15  A    between atoms: _35  and  _36
REMARK   16  A    between atoms: _35  and  _38
REMARK   17  A    between atoms: _38  and  _39
REMARK   18  A    between atoms: _44  and  _45
REMARK   19  A    between atoms: _47  and  _49
REMARK   20  A    between atoms: _49  and  _50
REMARK   21  A    between atoms: _49  and  _52
REMARK   22  A    between atoms: _52  and  _53
REMARK   23  A    between atoms: _53  and  _54
REMARK   24  A    between atoms: _57  and  _59
REMARK   25  A    between atoms: _59  and  _60
REMARK   26  A    between atoms: _59  and  _62
REMARK   27  A    between atoms: _62  and  _63
REMARK   28  A    between atoms: _68  and  _70
REMARK   29  A    between atoms: _70  and  _71
REMARK   30  A    between atoms: _70  and  _73
REMARK   31  A    between atoms: _73  and  _74
REMARK   32  A    between atoms: _84  and  _86
REMARK   33  A    between atoms: _86  and  _87
REMARK   34  A    between atoms: _86  and  _89
REMARK   35  A    between atoms: _89  and  _90
REMARK   36  A    between atoms: _90  and  _91
REMARK   37  A    between atoms: _96  and  _98
REMARK   38  A    between atoms: _98  and  _99
REMARK   39  A    between atoms: _98  and  _101
REMARK   40  A    between atoms: _101  and  _102
REMARK   41  A    between atoms: _105  and  _107
REMARK   42  A    between atoms: _107  and  _108
REMARK   43  A    between atoms: _107  and  _110
REMARK   44  A    between atoms: _113  and  _115
REMARK   45  A    between atoms: _115  and  _116
REMARK   46  A    between atoms: _115  and  _118
REMARK   47  A    between atoms: _118  and  _119
REMARK   48  A    between atoms: _119  and  _247
REMARK   49  A    between atoms: _120  and  _122
REMARK   50  A    between atoms: _122  and  _123
REMARK   51  A    between atoms: _122  and  _125
REMARK   52  A    between atoms: _125  and  _126
REMARK   53  A    between atoms: _131  and  _133
REMARK   54  A    between atoms: _133  and  _134
REMARK   55  A    between atoms: _137  and  _139
REMARK   56  A    between atoms: _139  and  _140
REMARK   57  A    between atoms: _139  and  _142
REMARK   58  A    between atoms: _142  and  _143
REMARK   59  A    between atoms: _145  and  _147
REMARK   60  A    between atoms: _147  and  _148
REMARK   61  A    between atoms: _151  and  _153
REMARK   62  A    between atoms: _153  and  _154
REMARK   63  A    between atoms: _153  and  _156
REMARK   64  A    between atoms: _156  and  _157
REMARK   65  A    between atoms: _167  and  _169
REMARK   66  A    between atoms: _169  and  _170
REMARK   67  A    between atoms: _169  and  _172
REMARK   68  A    between atoms: _172  and  _173
REMARK   69  A    between atoms: _176  and  _178
REMARK   70  A    between atoms: _178  and  _179
REMARK   71  A    between atoms: _178  and  _181
REMARK   72  A    between atoms: _181  and  _182
REMARK   73  A    between atoms: _187  and  _188
REMARK   74  A    between atoms: _190  and  _192
REMARK   75  A    between atoms: _192  and  _193
REMARK   76  A    between atoms: _192  and  _195
REMARK   77  A    between atoms: _195  and  _196
REMARK   78  A    between atoms: _196  and  _197
REMARK   79  A    between atoms: _197  and  _198
REMARK   80  A    between atoms: _207  and  _209
REMARK   81  A    between atoms: _209  and  _210
REMARK   82  A    between atoms: _209  and  _212
REMARK   83  A    between atoms: _212  and  _213
REMARK   84  A    between atoms: _216  and  _218
REMARK   85  A    between atoms: _218  and  _219
REMARK   86  A    between atoms: _218  and  _221
REMARK   87  A    between atoms: _221  and  _222
REMARK   88  A    between atoms: _222  and  _223
REMARK   89  A    between atoms: _223  and  _224
REMARK   90  A    between atoms: _224  and  _225
REMARK   91  A    between atoms: _229  and  _231
REMARK   92  A    between atoms: _231  and  _232
REMARK   93  A    between atoms: _231  and  _234
REMARK   94  A    between atoms: _234  and  _235
REMARK   95  A    between atoms: _235  and  _236
REMARK   96  A    between atoms: _241  and  _243
REMARK   97  A    between atoms: _243  and  _244
REMARK   98  A    between atoms: _243  and  _246
REMARK   99  A    between atoms: _246  and  _247
REMARK  100  A    between atoms: _248  and  _250
REMARK  101  A    between atoms: _250  and  _251
REMARK  102  A    between atoms: _250  and  _253
REMARK  103  A    between atoms: _253  and  _254
REMARK  104  A    between atoms: _254  and  _255
REMARK  105  A    between atoms: _258  and  _260
REMARK  106  A    between atoms: _260  and  _261
REMARK  107  A    between atoms: _260  and  _263
REMARK  108  A    between atoms: _263  and  _264
REMARK  109  A    between atoms: _267  and  _269
REMARK  110  A    between atoms: _269  and  _270
REMARK  111  A    between atoms: _269  and  _272
REMARK  112  A    between atoms: _275  and  _277
REMARK  113  A    between atoms: _277  and  _278
REMARK  114  A    between atoms: _277  and  _280
REMARK  115  A    between atoms: _283  and  _285
REMARK  116  A    between atoms: _285  and  _286
REMARK  117  A    between atoms: _289  and  _291
REMARK  118  A    between atoms: _291  and  _292
REMARK  119  A    between atoms: _291  and  _294
REMARK  120  A    between atoms: _294  and  _295
REMARK  121  A    between atoms: _300  and  _302
REMARK  122  A    between atoms: _313  and  _316
REMARK  123  A    between atoms: _316  and  _317
REMARK  124  A    between atoms: _317  and  _318
REMARK  125  A    between atoms: _323  and  _326
REMARK  126  A    between atoms: _326  and  _327
REMARK  127  A    between atoms: _327  and  _328
REMARK  128  A    between atoms: _337  and  _338
REMARK  129  A    between atoms: _346  and  _348
REMARK  130  A    between atoms: _348  and  _349
REMARK  131  A    between atoms: _348  and  _351
REMARK  132  A    between atoms: _351  and  _352
REMARK  133  A    between atoms: _355  and  _357
REMARK  134  A    between atoms: _357  and  _358
REMARK  135  A    between atoms: _357  and  _360
REMARK  136  A    between atoms: _360  and  _361
REMARK  137  A    between atoms: _366  and  _367
REMARK  138  A    between atoms: _369  and  _371
REMARK  139  A    between atoms: _371  and  _372
REMARK  140  A    between atoms: _371  and  _374
REMARK  141  A    between atoms: _374  and  _375
REMARK  142  A    between atoms: _381  and  _383
REMARK  143  A    between atoms: _383  and  _384
REMARK  144  A    between atoms: _383  and  _386
REMARK  145  A    between atoms: _386  and  _387
REMARK  146  A    between atoms: _392  and  _393
REMARK  147  A    between atoms: _395  and  _397
REMARK  148  A    between atoms: _397  and  _398
REMARK  149  A    between atoms: _397  and  _400
REMARK  150  A    between atoms: _400  and  _401
REMARK  151  A    between atoms: _401  and  _402
REMARK  152  A    between atoms: _402  and  _403
REMARK  153  A    between atoms: _412  and  _414
REMARK  154  A    between atoms: _414  and  _415
REMARK  155  A    between atoms: _414  and  _417
REMARK  156  A    between atoms: _417  and  _418
REMARK  157  A    between atoms: _418  and  _419
REMARK  158  A    between atoms: _422  and  _424
REMARK  159  A    between atoms: _424  and  _425
REMARK  160  A    between atoms: _427  and  _429
REMARK  161  A    between atoms: _429  and  _430
REMARK  162  A    between atoms: _429  and  _432
REMARK  163  A    between atoms: _432  and  _433
REMARK  164  A    between atoms: _439  and  _440
REMARK  165  A    between atoms: _445  and  _447
REMARK  166  A    between atoms: _447  and  _448
REMARK  167  A    between atoms: _447  and  _450
REMARK  168  A    between atoms: _450  and  _451
REMARK  169  A    between atoms: _457  and  _459
REMARK  170  A    between atoms: _459  and  _460
REMARK  171  A    between atoms: _459  and  _462
REMARK  172  A    between atoms: _462  and  _463
REMARK  173  A    between atoms: _468  and  _470
REMARK  174  A    between atoms: _470  and  _471
REMARK  175  A    between atoms: _470  and  _473
REMARK  176  A    between atoms: _473  and  _474
REMARK  177  A    between atoms: _474  and  _475
REMARK  178  A    between atoms: _475  and  _476
REMARK  179  A    between atoms: _476  and  ZN_722
REMARK  180  A    between atoms: _478  and  _480
REMARK  181  A    between atoms: _480  and  _481
REMARK  182  A    between atoms: _484  and  _486
REMARK  183  A    between atoms: _486  and  _487
REMARK  184  A    between atoms: _489  and  _491
REMARK  185  A    between atoms: _491  and  _492
REMARK  186  A    between atoms: _491  and  _494
REMARK  187  A    between atoms: _494  and  _495
REMARK  188  A    between atoms: _498  and  _500
REMARK  189  A    between atoms: _500  and  _501
REMARK  190  A    between atoms: _504  and  _506
REMARK  191  A    between atoms: _506  and  _507
REMARK  192  A    between atoms: _506  and  _509
REMARK  193  A    between atoms: _509  and  _510
REMARK  194  A    between atoms: _513  and  _515
REMARK  195  A    between atoms: _515  and  _516
REMARK  196  A    between atoms: _515  and  _518
REMARK  197  A    between atoms: _518  and  _519
REMARK  198  A    between atoms: _519  and  _520
REMARK  199  A    between atoms: _520  and  _521
REMARK  200  A    between atoms: _521  and  _522
REMARK  201  A    between atoms: _526  and  _528
REMARK  202  A    between atoms: _528  and  _529
REMARK  203  A    between atoms: _528  and  _531
REMARK  204  A    between atoms: _531  and  _532
REMARK  205  A    between atoms: _538  and  _540
REMARK  206  A    between atoms: _540  and  _541
REMARK  207  A    between atoms: _540  and  _543
REMARK  208  A    between atoms: _543  and  _544
REMARK  209  A    between atoms: _550  and  _552
REMARK  210  A    between atoms: _552  and  _553
REMARK  211  A    between atoms: _552  and  _555
REMARK  212  A    between atoms: _555  and  _556
REMARK  213  A    between atoms: _558  and  _560
REMARK  214  A    between atoms: _560  and  _561
REMARK  215  A    between atoms: _560  and  _563
REMARK  216  A    between atoms: _566  and  _568
REMARK  217  A    between atoms: _568  and  _569
REMARK  218  A    between atoms: _568  and  _571
REMARK  219  A    between atoms: _571  and  _572
REMARK  220  A    between atoms: _572  and  _573
REMARK  221  A    between atoms: _573  and  _574
REMARK  222  A    between atoms: _574  and  _575
REMARK  223  A    between atoms: _579  and  _581
REMARK  224  A    between atoms: _581  and  _582
REMARK  225  A    between atoms: _581  and  _584
REMARK  226  A    between atoms: _584  and  _585
REMARK  227  A    between atoms: _591  and  _593
REMARK  228  A    between atoms: _593  and  _594
REMARK  229  A    between atoms: _593  and  _596
REMARK  230  A    between atoms: _596  and  _597
REMARK  231  A    between atoms: _602  and  _604
REMARK  232  A    between atoms: _604  and  _605
REMARK  233  A    between atoms: _604  and  _607
REMARK  234  A    between atoms: _607  and  _608
REMARK  235  A    between atoms: _610  and  _612
REMARK  236  A    between atoms: _612  and  _613
REMARK  237  A    between atoms: _612  and  _615
REMARK  238  A    between atoms: _615  and  _616
REMARK  239  A    between atoms: _618  and  _620
REMARK  240  A    between atoms: _620  and  _621
REMARK  241  A    between atoms: _620  and  _623
REMARK  242  A    between atoms: _627  and  _628
REMARK  243  A    between atoms: _633  and  _635
REMARK  244  A    between atoms: _635  and  _636
REMARK  245  A    between atoms: _635  and  _638
REMARK  246  A    between atoms: _638  and  _639
REMARK  247  A    between atoms: _644  and  _645
REMARK  248  A    between atoms: _647  and  _649
REMARK  249  A    between atoms: _649  and  _650
REMARK  250  A    between atoms: _649  and  _652
REMARK  251  A    between atoms: _652  and  _653
REMARK  252  A    between atoms: _653  and  _654
REMARK  253  A    between atoms: _654  and  _655
REMARK  254  A    between atoms: _664  and  _666
REMARK  255  A    between atoms: _666  and  _667
REMARK  256  A    between atoms: _666  and  _669
REMARK  257  A    between atoms: _669  and  _670
REMARK  258  A    between atoms: _675  and  _676
REMARK  259  A    between atoms: _678  and  _680
REMARK  260  A    between atoms: _680  and  _681
REMARK  261  A    between atoms: _680  and  _683
REMARK  262  A    between atoms: _683  and  _684
REMARK  263  A    between atoms: _690  and  _692
REMARK  264  A    between atoms: _692  and  _693
REMARK  265  A    between atoms: _692  and  _695
REMARK  266  A    between atoms: _695  and  _696
REMARK  267  A    between atoms: _698  and  _700
REMARK  268  A    between atoms: _700  and  _701
REMARK  269  A    between atoms: _700  and  _703
REMARK  270  A    between atoms: _703  and  _704
REMARK  271  A    between atoms: _710  and  _712
REMARK  272  A    between atoms: _712  and  _713
REMARK  273  A    between atoms: _712  and  _715
REMARK  274  A    between atoms: _715  and  _716
REMARK  275  A    between atoms: _716  and  _717
REMARK                            x       y       z     vdW  Elec       q    Type
REMARK                         _______ _______ _______ _____ _____    ______ ____
ROOT
ATOM      1  C   GLU A   1      49.319  27.739  41.337  0.00  0.00    +0.238 C 
ATOM      2  N   ASP A   2      49.605  26.912  42.345  0.00  0.00    -0.298 N 
ATOM      3  H   ASP A   2      49.873  25.930  42.133  0.00  0.00    +0.150 HD
ATOM      4  O   GLU A   1      48.994  28.912  41.507  0.00  0.00    -0.274 OA
ENDROOT
BRANCH   1   5
ATOM      5  CA  GLU A   1      49.407  27.168  39.920  0.00  0.00    +0.145 C 
BRANCH   5   6
ATOM      6  N   GLU A   1      50.623  26.401  39.664  0.00  0.00    -0.238 NA
ATOM      7  H   GLU A   1      50.537  25.395  39.415  0.00  0.00    +0.142 HD
ENDBRANCH   5   6
BRANCH   5   8
ATOM      8  CB  GLU A   1      48.165  26.339  39.595  0.00  0.00    +0.038 C 
BRANCH   8   9
ATOM      9  CG  GLU A   1      47.062  27.165  38.980  0.00  0.00    +0.116 C 
BRANCH   9  10
ATOM     10  CD  GLU A   1      45.809  26.375  38.658  0.00  0.00    +0.365 C 
ATOM     11  OE2 GLU A   1      45.793  25.140  38.808  0.00  0.00    -0.246 OA
ATOM     12  OE1 GLU A   1      44.821  27.012  38.249  0.00  0.00    -0.246 OA
ENDBRANCH   9  10
ENDBRANCH   8   9
ENDBRANCH   5   8
ENDBRANCH   1   5
BRANCH   2  13
ATOM     13  CA  ASP A   2      49.551  27.351  43.744  0.00  0.00    +0.148 C 
BRANCH  13  14
ATOM     14  C   ASP A   2      50.808  28.107  44.178  0.00  0.00    +0.227 C 
ATOM     15  O   ASP A   2      50.822  28.752  45.237  0.00  0.00    -0.286 OA
ENDBRANCH  13  14
BRANCH  13  16
ATOM     16  CB  ASP A   2      49.280  26.171  44.679  0.00  0.00    +0.142 C 
BRANCH  16  17
ATOM     17  CG  ASP A   2      47.800  25.864  44.832  0.00  0.00    +0.367 C 
ATOM     18  OD2 ASP A   2      47.447  25.136  45.776  0.00  0.00    -0.246 OA
ATOM     19  OD1 ASP A   2      46.983  26.350  44.026  0.00  0.00    -0.246 OA
ENDBRANCH  16  17
ENDBRANCH  13  16
ENDBRANCH   2  13
TORSDOF 9
REMARK  Name = ../refined-set-2016/2oc2/2oc2_pocket.pdb
REMARK  275 active torsions:
REMARK  status: ('A' for Active; 'I' for Inactive)
REMARK    1  A    between atoms: _1  and  _3
REMARK    2  A    between atoms: _3  and  _4
REMARK    3  A    between atoms: _3  and  _6
REMARK    4  A    between atoms: _6  and  _7
REMARK    5  A    between atoms: _12  and  _14
REMARK    6  A    between atoms: _14  and  _15
REMARK    7  A    between atoms: _14  and  _17
REMARK    8  A    between atoms: _17  and  _18
REMARK    9  A    between atoms: _23  and  _25
REMARK   10  A    between atoms: _25  and  _26
REMARK   11  A    between atoms: _25  and  _28
REMARK   12  A    between atoms: _28  and  _29
REMARK   13  A    between atoms: _29  and  _30
REMARK   14  A    between atoms: _33  and  _35
REMARK   15  A    between atoms: _35  and  _36
REMARK   16  A    between atoms: _35  and  _38
REMARK   17  A    between atoms: _38  and  _39
REMARK   18  A    between atoms: _44  and  _45
REMARK   19  A    between atoms: _47  and  _49
REMARK   20  A    between atoms: _49  and  _50
REMARK   21  A    between atoms: _49  and  _52
REMARK   22  A    between atoms: _52  and  _53
REMARK   23  A    between atoms: _53  and  _54
REMARK   24  A    between atoms: _57  and  _59
REMARK   25  A    between atoms: _59  and  _60
REMARK   26  A    between atoms: _59  and  _62
REMARK   27  A    between atoms: _62  and  _63
REMARK   28  A    between atoms: _68  and  _70
REMARK   29  A    between atoms: _70  and  _71
REMARK   30  A    between atoms: _70  and  _73
REMARK   31  A    between atoms: _73  and  _74
REMARK   32  A    between atoms: _84  and  _86
REMARK   33  A    between atoms: _86  and  _87
REMARK   34  A    between atoms: _86  and  _89
REMARK   35  A    between atoms: _89  and  _90
REMARK   36  A    between atoms: _90  and  _91
REMARK   37  A    between atoms: _96  and  _98
REMARK   38  A    between atoms: _98  and  _99
REMARK   39  A    between atoms: _98  and  _101
REMARK   40  A    between atoms: _101  and  _102
REMARK   41  A    between atoms: _105  and  _107
REMARK   42  A    between atoms: _107  and  _108
REMARK   43  A    between atoms: _107  and  _110
REMARK   44  A    between atoms: _113  and  _115
REMARK   45  A    between atoms: _115  and  _116
REMARK   46  A    between atoms: _115  and  _118
REMARK   47  A    between atoms: _118  and  _119
REMARK   48  A    between atoms: _119  and  _247
REMARK   49  A    between atoms: _120  and  _122
REMARK   50  A    between atoms: _122  and  _123
REMARK   51  A    between atoms: _122  and  _125
REMARK   52  A    between atoms: _125  and  _126
REMARK   53  A    between atoms: _131  and  _133
REMARK   54  A    between atoms: _133  and  _134
REMARK   55  A    between atoms: _137  and  _139
REMARK   56  A    between atoms: _139  and  _140
REMARK   57  A    between atoms: _139  and  _142
REMARK   58  A    between atoms: _142  and  _143
REMARK   59  A    between atoms: _145  and  _147
REMARK   60  A    between atoms: _147  and  _148
REMARK   61  A    between atoms: _151  and  _153
REMARK   62  A    between atoms: _153  and  _154
REMARK   63  A    between atoms: _153  and  _156
REMARK   64  A    between atoms: _156  and  _157
REMARK   65  A    between atoms: _167  and  _169
REMARK   66  A    between atoms: _169  and  _170
REMARK   67  A    between atoms: _169  and  _172
REMARK   68  A    between atoms: _172  and  _173
REMARK   69  A    between atoms: _176  and  _178
REMARK   70  A    between atoms: _178  and  _179
REMARK   71  A    between atoms: _178  and  _181
REMARK   72  A    between atoms: _181  and  _182
REMARK   73  A    between atoms: _187  and  _188
REMARK   74  A    between atoms: _190  and  _192
REMARK   75  A    between atoms: _192  and  _193
REMARK   76  A    between atoms: _192  and  _195
REMARK   77  A    between atoms: _195  and  _196
REMARK   78  A    between atoms: _196  and  _197
REMARK   79  A    between atoms: _197  and  _198
REMARK   80  A    between atoms: _207  and  _209
REMARK   81  A    between atoms: _209  and  _210
REMARK   82  A    between atoms: _209  and  _212
REMARK   83  A    between atoms: _212  and  _213
REMARK   84  A    between atoms: _216  and  _218
REMARK   85  A    between atoms: _218  and  _219
REMARK   86  A    between atoms: _218  and  _221
REMARK   87  A    between atoms: _221  and  _222
REMARK   88  A    between atoms: _222  and  _223
REMARK   89  A    between atoms: _223  and  _224
REMARK   90  A    between atoms: _224  and  _225
REMARK   91  A    between atoms: _229  and  _231
REMARK   92  A    between atoms: _231  and  _232
REMARK   93  A    between atoms: _231  and  _234
REMARK   94  A    between atoms: _234  and  _235
REMARK   95  A    between atoms: _235  and  _236
REMARK   96  A    between atoms: _241  and  _243
REMARK   97  A    between atoms: _243  and  _244
REMARK   98  A    between atoms: _243  and  _246
REMARK   99  A    between atoms: _246  and  _247
REMARK  100  A    between atoms: _248  and  _250
REMARK  101  A    between atoms: _250  and  _251
REMARK  102  A    between atoms: _250  and  _253
REMARK  103  A    between atoms: _253  and  _254
REMARK  104  A    between atoms: _254  and  _255
REMARK  105  A    between atoms: _258  and  _260
REMARK  106  A    between atoms: _260  and  _261
REMARK  107  A    between atoms: _260  and  _263
REMARK  108  A    between atoms: _263  and  _264
REMARK  109  A    between atoms: _267  and  _269
REMARK  110  A    between atoms: _269  and  _270
REMARK  111  A    between atoms: _269  and  _272
REMARK  112  A    between atoms: _275  and  _277
REMARK  113  A    between atoms: _277  and  _278
REMARK  114  A    between atoms: _277  and  _280
REMARK  115  A    between atoms: _283  and  _285
REMARK  116  A    between atoms: _285  and  _286
REMARK  117  A    between atoms: _289  and  _291
REMARK  118  A    between atoms: _291  and  _292
REMARK  119  A    between atoms: _291  and  _294
REMARK  120  A    between atoms: _294  and  _295
REMARK  121  A    between atoms: _300  and  _302
REMARK  122  A    between atoms: _313  and  _316
REMARK  123  A    between atoms: _316  and  _317
REMARK  124  A    between atoms: _317  and  _318
REMARK  125  A    between atoms: _323  and  _326
REMARK  126  A    between atoms: _326  and  _327
REMARK  127  A    between atoms: _327  and  _328
REMARK  128  A    between atoms: _337  and  _338
REMARK  129  A    between atoms: _346  and  _348
REMARK  130  A    between atoms: _348  and  _349
REMARK  131  A    between atoms: _348  and  _351
REMARK  132  A    between atoms: _351  and  _352
REMARK  133  A    between atoms: _355  and  _357
REMARK  134  A    between atoms: _357  and  _358
REMARK  135  A    between atoms: _357  and  _360
REMARK  136  A    between atoms: _360  and  _361
REMARK  137  A    between atoms: _366  and  _367
REMARK  138  A    between atoms: _369  and  _371
REMARK  139  A    between atoms: _371  and  _372
REMARK  140  A    between atoms: _371  and  _374
REMARK  141  A    between atoms: _374  and  _375
REMARK  142  A    between atoms: _381  and  _383
REMARK  143  A    between atoms: _383  and  _384
REMARK  144  A    between atoms: _383  and  _386
REMARK  145  A    between atoms: _386  and  _387
REMARK  146  A    between atoms: _392  and  _393
REMARK  147  A    between atoms: _395  and  _397
REMARK  148  A    between atoms: _397  and  _398
REMARK  149  A    between atoms: _397  and  _400
REMARK  150  A    between atoms: _400  and  _401
REMARK  151  A    between atoms: _401  and  _402
REMARK  152  A    between atoms: _402  and  _403
REMARK  153  A    between atoms: _412  and  _414
REMARK  154  A    between atoms: _414  and  _415
REMARK  155  A    between atoms: _414  and  _417
REMARK  156  A    between atoms: _417  and  _418
REMARK  157  A    between atoms: _418  and  _419
REMARK  158  A    between atoms: _422  and  _424
REMARK  159  A    between atoms: _424  and  _425
REMARK  160  A    between atoms: _427  and  _429
REMARK  161  A    between atoms: _429  and  _430
REMARK  162  A    between atoms: _429  and  _432
REMARK  163  A    between atoms: _432  and  _433
REMARK  164  A    between atoms: _439  and  _440
REMARK  165  A    between atoms: _445  and  _447
REMARK  166  A    between atoms: _447  and  _448
REMARK  167  A    between atoms: _447  and  _450
REMARK  168  A    between atoms: _450  and  _451
REMARK  169  A    between atoms: _457  and  _459
REMARK  170  A    between atoms: _459  and  _460
REMARK  171  A    between atoms: _459  and  _462
REMARK  172  A    between atoms: _462  and  _463
REMARK  173  A    between atoms: _468  and  _470
REMARK  174  A    between atoms: _470  and  _471
REMARK  175  A    between atoms: _470  and  _473
REMARK  176  A    between atoms: _473  and  _474
REMARK  177  A    between atoms: _474  and  _475
REMARK  178  A    between atoms: _475  and  _476
REMARK  179  A    between atoms: _476  and  ZN_722
REMARK  180  A    between atoms: _478  and  _480
REMARK  181  A    between atoms: _480  and  _481
REMARK  182  A    between atoms: _484  and  _486
REMARK  183  A    between atoms: _486  and  _487
REMARK  184  A    between atoms: _489  and  _491
REMARK  185  A    between atoms: _491  and  _492
REMARK  186  A    between atoms: _491  and  _494
REMARK  187  A    between atoms: _494  and  _495
REMARK  188  A    between atoms: _498  and  _500
REMARK  189  A    between atoms: _500  and  _501
REMARK  190  A    between atoms: _504  and  _506
REMARK  191  A    between atoms: _506  and  _507
REMARK  192  A    between atoms: _506  and  _509
REMARK  193  A    between atoms: _509  and  _510
REMARK  194  A    between atoms: _513  and  _515
REMARK  195  A    between atoms: _515  and  _516
REMARK  196  A    between atoms: _515  and  _518
REMARK  197  A    between atoms: _518  and  _519
REMARK  198  A    between atoms: _519  and  _520
REMARK  199  A    between atoms: _520  and  _521
REMARK  200  A    between atoms: _521  and  _522
REMARK  201  A    between atoms: _526  and  _528
REMARK  202  A    between atoms: _528  and  _529
REMARK  203  A    between atoms: _528  and  _531
REMARK  204  A    between atoms: _531  and  _532
REMARK  205  A    between atoms: _538  and  _540
REMARK  206  A    between atoms: _540  and  _541
REMARK  207  A    between atoms: _540  and  _543
REMARK  208  A    between atoms: _543  and  _544
REMARK  209  A    between atoms: _550  and  _552
REMARK  210  A    between atoms: _552  and  _553
REMARK  211  A    between atoms: _552  and  _555
REMARK  212  A    between atoms: _555  and  _556
REMARK  213  A    between atoms: _558  and  _560
REMARK  214  A    between atoms: _560  and  _561
REMARK  215  A    between atoms: _560  and  _563
REMARK  216  A    between atoms: _566  and  _568
REMARK  217  A    between atoms: _568  and  _569
REMARK  218  A    between atoms: _568  and  _571
REMARK  219  A    between atoms: _571  and  _572
REMARK  220  A    between atoms: _572  and  _573
REMARK  221  A    between atoms: _573  and  _574
REMARK  222  A    between atoms: _574  and  _575
REMARK  223  A    between atoms: _579  and  _581
REMARK  224  A    between atoms: _581  and  _582
REMARK  225  A    between atoms: _581  and  _584
REMARK  226  A    between atoms: _584  and  _585
REMARK  227  A    between atoms: _591  and  _593
REMARK  228  A    between atoms: _593  and  _594
REMARK  229  A    between atoms: _593  and  _596
REMARK  230  A    between atoms: _596  and  _597
REMARK  231  A    between atoms: _602  and  _604
REMARK  232  A    between atoms: _604  and  _605
REMARK  233  A    between atoms: _604  and  _607
REMARK  234  A    between atoms: _607  and  _608
REMARK  235  A    between atoms: _610  and  _612
REMARK  236  A    between atoms: _612  and  _613
REMARK  237  A    between atoms: _612  and  _615
REMARK  238  A    between atoms: _615  and  _616
REMARK  239  A    between atoms: _618  and  _620
REMARK  240  A    between atoms: _620  and  _621
REMARK  241  A    between atoms: _620  and  _623
REMARK  242  A    between atoms: _627  and  _628
REMARK  243  A    between atoms: _633  and  _635
REMARK  244  A    between atoms: _635  and  _636
REMARK  245  A    between atoms: _635  and  _638
REMARK  246  A    between atoms: _638  and  _639
REMARK  247  A    between atoms: _644  and  _645
REMARK  248  A    between atoms: _647  and  _649
REMARK  249  A    between atoms: _649  and  _650
REMARK  250  A    between atoms: _649  and  _652
REMARK  251  A    between atoms: _652  and  _653
REMARK  252  A    between atoms: _653  and  _654
REMARK  253  A    between atoms: _654  and  _655
REMARK  254  A    between atoms: _664  and  _666
REMARK  255  A    between atoms: _666  and  _667
REMARK  256  A    between atoms: _666  and  _669
REMARK  257  A    between atoms: _669  and  _670
REMARK  258  A    between atoms: _675  and  _676
REMARK  259  A    between atoms: _678  and  _680
REMARK  260  A    between atoms: _680  and  _681
REMARK  261  A    between atoms: _680  and  _683
REMARK  262  A    between atoms: _683  and  _684
REMARK  263  A    between atoms: _690  and  _692
REMARK  264  A    between atoms: _692  and  _693
REMARK  265  A    between atoms: _692  and  _695
REMARK  266  A    between atoms: _695  and  _696
REMARK  267  A    between atoms: _698  and  _700
REMARK  268  A    between atoms: _700  and  _701
REMARK  269  A    between atoms: _700  and  _703
REMARK  270  A    between atoms: _703  and  _704
REMARK  271  A    between atoms: _710  and  _712
REMARK  272  A    between atoms: _712  and  _713
REMARK  273  A    between atoms: _712  and  _715
REMARK  274  A    between atoms: _715  and  _716
REMARK  275  A    between atoms: _716  and  _717
REMARK                            x       y       z     vdW  Elec       q    Type
REMARK                         _______ _______ _______ _____ _____    ______ ____
ROOT
ATOM      1  C   UNK A   5      49.358  36.531  45.515  0.00  0.00    +0.000 C 
ATOM      2  C   UNK A   5      49.050  36.795  46.996  0.00  0.00    +0.000 C 
ATOM      3  N   GLU A   6      49.090  35.723  47.788  0.00  0.00    +0.000 N 
ATOM      4  CA  GLU A   6      48.830  35.746  49.224  0.00  0.00    +0.000 C 
ATOM      5  C   GLU A   6      49.886  36.520  50.000  0.00  0.00    +0.000 C 
ATOM      6  O   GLU A   6      49.569  37.219  50.968  0.00  0.00    +0.000 OA
ATOM      7  N   MET A   7      51.135  36.394  49.563  0.00  0.00    +0.000 N 
ATOM      8  CA  MET A   7      52.272  37.093  50.157  0.00  0.00    +0.000 C 
ATOM      9  C   MET A   7      52.312  38.579  49.797  0.00  0.00    +0.000 C 
ATOM     10  O   MET A   7      52.939  39.383  50.494  0.00  0.00    +0.000 OA
ATOM     11  N   GLY A   8      51.646  38.940  48.706  0.00  0.00    +0.000 N 
ATOM     12  CA  GLY A   8      51.486  40.345  48.331  0.00  0.00    +0.000 C 
ATOM     13  C   GLY A   8      50.438  41.049  49.175  0.00  0.00    +0.000 C 
ATOM     14  N   UNK A   9      49.409  40.299  49.590  0.00  0.00    +0.000 N 
ATOM     15  C   UNK A   9      48.438  40.765  50.584  0.00  0.00    +0.000 C 
ATOM     16  C   UNK A   9      47.321  39.741  50.805  0.00  0.00    +0.000 C 
ATOM     17  C   UNK A   9      46.298  39.690  49.718  0.00  0.00    +0.000 A 
ATOM     18  N   UNK A   9      45.647  40.809  49.248  0.00  0.00    +0.000 NA
ATOM     19  C   UNK A   9      44.785  40.456  48.315  0.00  0.00    +0.000 A 
ATOM     20  N   UNK A   9      44.843  39.145  48.171  0.00  0.00    +0.000 N 
ATOM     21 ZN   UNK A   9      43.747  38.187  46.788  0.00  0.00    +0.000 Zn
ATOM     22  N   UNK A   9      44.951  37.521  45.331  0.00  0.00    +0.000 N 
ATOM     23  C   UNK A   9      45.863  36.577  45.737  0.00  0.00    +0.000 A 
ATOM     24  C   UNK A   9      46.904  36.637  44.879  0.00  0.00    +0.000 A 
ATOM     25  N   UNK A   9      46.593  37.617  43.966  0.00  0.00    +0.000 NA
ATOM     26  C   UNK A   9      45.414  38.129  44.254  0.00  0.00    +0.000 A 
ATOM     27  C   UNK A   9      45.774  38.640  49.046  0.00  0.00    +0.000 A 
ATOM     28  H   UNK A   9      49.294  39.346  49.190  0.00  0.00    +0.000 HD
ATOM     29  O   GLY A   8      50.546  42.256  49.419  0.00  0.00    +0.000 OA
ATOM     30  H   GLY A   8      51.227  38.204  48.102  0.00  0.00    +0.000 HD
ATOM     31  H   MET A   7      51.312  35.764  48.755  0.00  0.00    +0.000 HD
ATOM     32  H   GLU A   6      49.322  34.808  47.353  0.00  0.00    +0.000 HD
ATOM     33  O   UNK A   5      48.816  37.941  47.401  0.00  0.00    +0.000 OA
ATOM     34  C   UNK A   5      48.174  35.857  44.817  0.00  0.00    +0.000 C 
ENDROOT
BRANCH   1  37
ATOM     35  C   ALA A   4      51.697  35.969  45.932  0.00  0.00    +0.000 C 
ATOM     36  O   ALA A   4      51.934  37.044  46.466  0.00  0.00    +0.000 OA
ATOM     37  N   UNK A   5      50.524  35.668  45.391  0.00  0.00    +0.000 N 
ATOM     38  H   UNK A   5      50.434  34.780  44.857  0.00  0.00    +0.000 HD
BRANCH  35  39
ATOM     39  CA  ALA A   4      52.776  34.904  45.828  0.00  0.00    +0.000 C 
BRANCH  39  42
ATOM     40  C   UNK A   3      51.796  33.110  47.228  0.00  0.00    +0.000 C 
ATOM     41  O   UNK A   3      51.789  33.802  48.249  0.00  0.00    +0.000 OA
ATOM     42  N   ALA A   4      52.277  33.531  46.052  0.00  0.00    +0.000 N 
ATOM     43  H   ALA A   4      52.301  32.860  45.258  0.00  0.00    +0.000 HD
BRANCH  40  44
ATOM     44  C   UNK A   3      51.241  31.685  47.273  0.00  0.00    +0.000 C 
ATOM     45  C   UNK A   3      52.380  30.674  47.415  0.00  0.00    +0.000 C 
BRANCH  44  48
ATOM     46  C   HIS A   2      49.411  32.126  45.694  0.00  0.00    +0.000 C 
ATOM     47  O   HIS A   2      49.017  33.121  46.311  0.00  0.00    +0.000 OA
ATOM     48  N   UNK A   3      50.426  31.367  46.106  0.00  0.00    +0.000 N 
ATOM     49  H   UNK A   3      50.648  30.505  45.568  0.00  0.00    +0.000 HD
BRANCH  46  50
ATOM     50  CA  HIS A   2      48.740  31.717  44.369  0.00  0.00    +0.000 C 
BRANCH  50  52
ATOM     51  C   PHE A   1      50.569  32.261  42.818  0.00  0.00    +0.000 C 
ATOM     52  N   HIS A   2      49.706  31.371  43.311  0.00  0.00    +0.000 N 
ATOM     53  H   HIS A   2      49.715  30.401  42.936  0.00  0.00    +0.000 HD
ATOM     54  O   PHE A   1      50.622  33.426  43.211  0.00  0.00    +0.000 OA
BRANCH  51  55
ATOM     55  CA  PHE A   1      51.557  31.764  41.743  0.00  0.00    +0.000 C 
BRANCH  55  56
ATOM     56  CB  PHE A   1      50.931  31.721  40.310  0.00  0.00    +0.000 C 
ATOM     57  CG2 PHE A   1      50.115  32.989  39.996  0.00  0.00    +0.000 C 
ATOM     58  CG1 PHE A   1      52.021  31.538  39.270  0.00  0.00    +0.000 C 
ENDBRANCH  55  56
BRANCH  55  59
ATOM     59  N   PHE A   1      52.097  30.464  42.121  0.00  0.00    +0.000 NA
ATOM     60  H   PHE A   1      51.929  29.657  41.487  0.00  0.00    +0.000 HD
ENDBRANCH  55  59
ENDBRANCH  51  55
ENDBRANCH  50  52
BRANCH  50  61
ATOM     61  CB  HIS A   2      47.696  30.589  44.584  0.00  0.00    +0.000 C 
ATOM     62  CG2 HIS A   2      46.827  30.859  45.794  0.00  0.00    +0.000 C 
ATOM     63  CG1 HIS A   2      46.822  30.442  43.341  0.00  0.00    +0.000 C 
ENDBRANCH  50  61
ENDBRANCH  46  50
ENDBRANCH  44  48
ENDBRANCH  40  44
ENDBRANCH  39  42
BRANCH  39  64
ATOM     64  CB  ALA A   4      53.471  35.025  44.467  0.00  0.00    +0.000 C 
BRANCH  64  65
ATOM     65  CG  ALA A   4      54.830  34.412  44.442  0.00  0.00    +0.000 A 
ATOM     66  CD2 ALA A   4      56.058  34.956  44.616  0.00  0.00    +0.000 A 
ATOM     67  NE2 ALA A   4      56.969  33.932  44.523  0.00  0.00    +0.000 NA
ATOM     68  CE1 ALA A   4      56.323  32.801  44.302  0.00  0.00    +0.000 A 
ATOM     69  ND1 ALA A   4      55.030  33.062  44.255  0.00  0.00    +0.000 NA
ENDBRANCH  64  65
ENDBRANCH  39  64
ENDBRANCH  35  39
ENDBRANCH   1  37
BRANCH  15  70
ATOM     70  C   UNK A   9      49.160  40.965  51.915  0.00  0.00    +0.000 C 
ATOM     71  O   UNK A   9      48.984  41.977  52.588  0.00  0.00    +0.000 OA
ATOM     72  N   ILE A  10      49.967  39.974  52.279  0.00  0.00    +0.000 N 
ATOM     73  H   ILE A  10      50.035  39.138  51.664  0.00  0.00    +0.000 HD
BRANCH  72  74
ATOM     74  CA  ILE A  10      50.762  40.004  53.502  0.00  0.00    +0.000 C 
BRANCH  74  75
ATOM     75  CB  ILE A  10      51.497  38.663  53.711  0.00  0.00    +0.000 C 
ATOM     76  CG2 ILE A  10      52.627  38.798  54.754  0.00  0.00    +0.000 C 
BRANCH  75  77
ATOM     77  CG1 ILE A  10      50.492  37.561  54.082  0.00  0.00    +0.000 C 
ATOM     78  CD1 ILE A  10      49.796  37.741  55.428  0.00  0.00    +0.000 C 
ENDBRANCH  75  77
ENDBRANCH  74  75
BRANCH  74  79
ATOM     79  C   ILE A  10      51.747  41.169  53.520  0.00  0.00    +0.000 C 
ATOM     80  O   ILE A  10      51.874  41.862  54.528  0.00  0.00    +0.000 OA
ENDBRANCH  74  79
ENDBRANCH  72  74
ENDBRANCH  15  70
BRANCH   8  81
ATOM     81  CB  MET A   7      53.570  36.410  49.738  0.00  0.00    +0.000 C 
BRANCH  81  82
ATOM     82  CG  MET A   7      53.759  35.019  50.331  0.00  0.00    +0.000 C 
BRANCH  82  83
ATOM     83  SD  MET A   7      54.255  35.048  52.068  0.00  0.00    +0.000 S 
ATOM     84  CE  MET A   7      55.848  35.850  51.893  0.00  0.00    +0.000 C 
ENDBRANCH  82  83
ENDBRANCH  81  82
ENDBRANCH   8  81
BRANCH   4  85
ATOM     85  CB  GLU A   6      48.739  34.312  49.769  0.00  0.00    +0.000 C 
BRANCH  85  86
ATOM     86  CG  GLU A   6      47.627  33.460  49.177  0.00  0.00    +0.000 C 
BRANCH  86  87
ATOM     87  CD  GLU A   6      46.263  34.085  49.353  0.00  0.00    +0.000 C 
ATOM     88  OE2 GLU A   6      45.708  34.004  50.463  0.00  0.00    +0.000 OA
ATOM     89  OE1 GLU A   6      45.745  34.650  48.374  0.00  0.00    +0.000 OA
ENDBRANCH  86  87
ENDBRANCH  85  86
ENDBRANCH   4  85
BRANCH  21  90
ATOM     90  O   UNK A   3      43.071  39.614  45.710  0.00  0.00    +0.000 OA
BRANCH  90  91
ATOM     91  C   UNK A   3      42.475  40.715  45.815  0.00  0.00    +0.000 C 
ATOM     92  O   UNK A   3      41.788  41.011  46.817  0.00  0.00    +0.000 OA
BRANCH  91  93
ATOM     93  C   UNK A   3      42.606  41.740  44.688  0.00  0.00    +0.000 C 
BRANCH  93  94
ATOM     94  C   UNK A   3      43.880  41.581  43.872  0.00  0.00    +0.000 C 
BRANCH  94  95
ATOM     95  C   UNK A   3      45.178  41.864  44.633  0.00  0.00    +0.000 C 
BRANCH  95  96
ATOM     96  C   UNK A   3      46.390  41.850  43.684  0.00  0.00    +0.000 C 
ATOM     97  O   UNK A   3      46.958  40.793  43.403  0.00  0.00    +0.000 OA
ATOM     98  N   ALA A   4      46.797  43.027  43.214  0.00  0.00    +0.000 N 
ATOM     99  H   ALA A   4      46.359  43.896  43.580  0.00  0.00    +0.000 HD
BRANCH  98 100
ATOM    100  CA  ALA A   4      47.845  43.133  42.195  0.00  0.00    +0.000 C 
ATOM    101  CB  ALA A   4      47.796  44.504  41.520  0.00  0.00    +0.000 C 
BRANCH 100 102
ATOM    102  C   ALA A   4      49.282  42.805  42.636  0.00  0.00    +0.000 C 
ATOM    103  O   ALA A   4      50.066  42.348  41.815  0.00  0.00    +0.000 OA
ENDBRANCH 100 102
ENDBRANCH  98 100
ENDBRANCH  95  96
BRANCH  95 104
ATOM    104  N   UNK A   3      45.077  43.122  45.371  0.00  0.00    +0.000 N 
ATOM    105  C   HIS A   2      45.910  43.398  46.365  0.00  0.00    +0.000 C 
ATOM    106  O   HIS A   2      46.758  42.585  46.755  0.00  0.00    +0.000 OA
ATOM    107  H   UNK A   3      44.341  43.810  45.113  0.00  0.00    +0.000 HD
BRANCH 105 108
ATOM    108  CA  HIS A   2      45.774  44.792  47.020  0.00  0.00    +0.000 C 
BRANCH 108 109
ATOM    109  N   HIS A   2      45.492  45.858  46.054  0.00  0.00    +0.000 N 
ATOM    110  H   HIS A   2      44.568  46.334  46.095  0.00  0.00    +0.000 HD
ATOM    111  C   PHE A   1      46.365  46.242  45.129  0.00  0.00    +0.000 C 
ATOM    112  O   PHE A   1      47.476  45.734  44.999  0.00  0.00    +0.000 OA
BRANCH 111 113
ATOM    113  CA  PHE A   1      45.906  47.375  44.214  0.00  0.00    +0.000 C 
BRANCH 113 114
ATOM    114  N   PHE A   1      44.490  47.217  43.828  0.00  0.00    +0.000 NA
ATOM    115  H   PHE A   1      43.820  47.977  44.063  0.00  0.00    +0.000 HD
ENDBRANCH 113 114
BRANCH 113 116
ATOM    116  CB  PHE A   1      46.133  48.710  44.938  0.00  0.00    +0.000 C 
BRANCH 116 117
ATOM    117  CG  PHE A   1      46.514  49.858  44.031  0.00  0.00    +0.000 A 
ATOM    118  CD2 PHE A   1      47.726  50.526  44.210  0.00  0.00    +0.000 A 
ATOM    119  CE2 PHE A   1      48.071  51.581  43.396  0.00  0.00    +0.000 A 
ATOM    120  CZ  PHE A   1      47.205  51.999  42.393  0.00  0.00    +0.000 A 
ATOM    121  CE1 PHE A   1      45.995  51.363  42.212  0.00  0.00    +0.000 A 
ATOM    122  CD1 PHE A   1      45.650  50.301  43.031  0.00  0.00    +0.000 A 
ENDBRANCH 116 117
ENDBRANCH 113 116
ENDBRANCH 111 113
ENDBRANCH 108 109
BRANCH 108 123
ATOM    123  CB  HIS A   2      44.690  44.788  48.099  0.00  0.00    +0.000 C 
BRANCH 123 124
ATOM    124  CG  HIS A   2      45.221  44.679  49.497  0.00  0.00    +0.000 A 
ATOM    125  CD2 HIS A   2      45.067  45.487  50.572  0.00  0.00    +0.000 A 
ATOM    126  NE2 HIS A   2      45.754  44.913  51.614  0.00  0.00    +0.000 NA
ATOM    127  CE1 HIS A   2      46.298  43.784  51.199  0.00  0.00    +0.000 A 
ATOM    128  ND1 HIS A   2      45.993  43.619  49.924  0.00  0.00    +0.000 NA
ENDBRANCH 123 124
ENDBRANCH 108 123
ENDBRANCH 105 108
ENDBRANCH  95 104
ENDBRANCH  94  95
ENDBRANCH  93  94
ENDBRANCH  91  93
ENDBRANCH  90  91
ENDBRANCH  21  90
TORSDOF 41
REMARK  Name = ../refined-set-2016/2oc2/2oc2_pocket.pdb
REMARK  275 active torsions:
REMARK  status: ('A' for Active; 'I' for Inactive)
REMARK    1  A    between atoms: _1  and  _3
REMARK    2  A    between atoms: _3  and  _4
REMARK    3  A    between atoms: _3  and  _6
REMARK    4  A    between atoms: _6  and  _7
REMARK    5  A    between atoms: _12  and  _14
REMARK    6  A    between atoms: _14  and  _15
REMARK    7  A    between atoms: _14  and  _17
REMARK    8  A    between atoms: _17  and  _18
REMARK    9  A    between atoms: _23  and  _25
REMARK   10  A    between atoms: _25  and  _26
REMARK   11  A    between atoms: _25  and  _28
REMARK   12  A    between atoms: _28  and  _29
REMARK   13  A    between atoms: _29  and  _30
REMARK   14  A    between atoms: _33  and  _35
REMARK   15  A    between atoms: _35  and  _36
REMARK   16  A    between atoms: _35  and  _38
REMARK   17  A    between atoms: _38  and  _39
REMARK   18  A    between atoms: _44  and  _45
REMARK   19  A    between atoms: _47  and  _49
REMARK   20  A    between atoms: _49  and  _50
REMARK   21  A    between atoms: _49  and  _52
REMARK   22  A    between atoms: _52  and  _53
REMARK   23  A    between atoms: _53  and  _54
REMARK   24  A    between atoms: _57  and  _59
REMARK   25  A    between atoms: _59  and  _60
REMARK   26  A    between atoms: _59  and  _62
REMARK   27  A    between atoms: _62  and  _63
REMARK   28  A    between atoms: _68  and  _70
REMARK   29  A    between atoms: _70  and  _71
REMARK   30  A    between atoms: _70  and  _73
REMARK   31  A    between atoms: _73  and  _74
REMARK   32  A    between atoms: _84  and  _86
REMARK   33  A    between atoms: _86  and  _87
REMARK   34  A    between atoms: _86  and  _89
REMARK   35  A    between atoms: _89  and  _90
REMARK   36  A    between atoms: _90  and  _91
REMARK   37  A    between atoms: _96  and  _98
REMARK   38  A    between atoms: _98  and  _99
REMARK   39  A    between atoms: _98  and  _101
REMARK   40  A    between atoms: _101  and  _102
REMARK   41  A    between atoms: _105  and  _107
REMARK   42  A    between atoms: _107  and  _108
REMARK   43  A    between atoms: _107  and  _110
REMARK   44  A    between atoms: _113  and  _115
REMARK   45  A    between atoms: _115  and  _116
REMARK   46  A    between atoms: _115  and  _118
REMARK   47  A    between atoms: _118  and  _119
REMARK   48  A    between atoms: _119  and  _247
REMARK   49  A    between atoms: _120  and  _122
REMARK   50  A    between atoms: _122  and  _123
REMARK   51  A    between atoms: _122  and  _125
REMARK   52  A    between atoms: _125  and  _126
REMARK   53  A    between atoms: _131  and  _133
REMARK   54  A    between atoms: _133  and  _134
REMARK   55  A    between atoms: _137  and  _139
REMARK   56  A    between atoms: _139  and  _140
REMARK   57  A    between atoms: _139  and  _142
REMARK   58  A    between atoms: _142  and  _143
REMARK   59  A    between atoms: _145  and  _147
REMARK   60  A    between atoms: _147  and  _148
REMARK   61  A    between atoms: _151  and  _153
REMARK   62  A    between atoms: _153  and  _154
REMARK   63  A    between atoms: _153  and  _156
REMARK   64  A    between atoms: _156  and  _157
REMARK   65  A    between atoms: _167  and  _169
REMARK   66  A    between atoms: _169  and  _170
REMARK   67  A    between atoms: _169  and  _172
REMARK   68  A    between atoms: _172  and  _173
REMARK   69  A    between atoms: _176  and  _178
REMARK   70  A    between atoms: _178  and  _179
REMARK   71  A    between atoms: _178  and  _181
REMARK   72  A    between atoms: _181  and  _182
REMARK   73  A    between atoms: _187  and  _188
REMARK   74  A    between atoms: _190  and  _192
REMARK   75  A    between atoms: _192  and  _193
REMARK   76  A    between atoms: _192  and  _195
REMARK   77  A    between atoms: _195  and  _196
REMARK   78  A    between atoms: _196  and  _197
REMARK   79  A    between atoms: _197  and  _198
REMARK   80  A    between atoms: _207  and  _209
REMARK   81  A    between atoms: _209  and  _210
REMARK   82  A    between atoms: _209  and  _212
REMARK   83  A    between atoms: _212  and  _213
REMARK   84  A    between atoms: _216  and  _218
REMARK   85  A    between atoms: _218  and  _219
REMARK   86  A    between atoms: _218  and  _221
REMARK   87  A    between atoms: _221  and  _222
REMARK   88  A    between atoms: _222  and  _223
REMARK   89  A    between atoms: _223  and  _224
REMARK   90  A    between atoms: _224  and  _225
REMARK   91  A    between atoms: _229  and  _231
REMARK   92  A    between atoms: _231  and  _232
REMARK   93  A    between atoms: _231  and  _234
REMARK   94  A    between atoms: _234  and  _235
REMARK   95  A    between atoms: _235  and  _236
REMARK   96  A    between atoms: _241  and  _243
REMARK   97  A    between atoms: _243  and  _244
REMARK   98  A    between atoms: _243  and  _246
REMARK   99  A    between atoms: _246  and  _247
REMARK  100  A    between atoms: _248  and  _250
REMARK  101  A    between atoms: _250  and  _251
REMARK  102  A    between atoms: _250  and  _253
REMARK  103  A    between atoms: _253  and  _254
REMARK  104  A    between atoms: _254  and  _255
REMARK  105  A    between atoms: _258  and  _260
REMARK  106  A    between atoms: _260  and  _261
REMARK  107  A    between atoms: _260  and  _263
REMARK  108  A    between atoms: _263  and  _264
REMARK  109  A    between atoms: _267  and  _269
REMARK  110  A    between atoms: _269  and  _270
REMARK  111  A    between atoms: _269  and  _272
REMARK  112  A    between atoms: _275  and  _277
REMARK  113  A    between atoms: _277  and  _278
REMARK  114  A    between atoms: _277  and  _280
REMARK  115  A    between atoms: _283  and  _285
REMARK  116  A    between atoms: _285  and  _286
REMARK  117  A    between atoms: _289  and  _291
REMARK  118  A    between atoms: _291  and  _292
REMARK  119  A    between atoms: _291  and  _294
REMARK  120  A    between atoms: _294  and  _295
REMARK  121  A    between atoms: _300  and  _302
REMARK  122  A    between atoms: _313  and  _316
REMARK  123  A    between atoms: _316  and  _317
REMARK  124  A    between atoms: _317  and  _318
REMARK  125  A    between atoms: _323  and  _326
REMARK  126  A    between atoms: _326  and  _327
REMARK  127  A    between atoms: _327  and  _328
REMARK  128  A    between atoms: _337  and  _338
REMARK  129  A    between atoms: _346  and  _348
REMARK  130  A    between atoms: _348  and  _349
REMARK  131  A    between atoms: _348  and  _351
REMARK  132  A    between atoms: _351  and  _352
REMARK  133  A    between atoms: _355  and  _357
REMARK  134  A    between atoms: _357  and  _358
REMARK  135  A    between atoms: _357  and  _360
REMARK  136  A    between atoms: _360  and  _361
REMARK  137  A    between atoms: _366  and  _367
REMARK  138  A    between atoms: _369  and  _371
REMARK  139  A    between atoms: _371  and  _372
REMARK  140  A    between atoms: _371  and  _374
REMARK  141  A    between atoms: _374  and  _375
REMARK  142  A    between atoms: _381  and  _383
REMARK  143  A    between atoms: _383  and  _384
REMARK  144  A    between atoms: _383  and  _386
REMARK  145  A    between atoms: _386  and  _387
REMARK  146  A    between atoms: _392  and  _393
REMARK  147  A    between atoms: _395  and  _397
REMARK  148  A    between atoms: _397  and  _398
REMARK  149  A    between atoms: _397  and  _400
REMARK  150  A    between atoms: _400  and  _401
REMARK  151  A    between atoms: _401  and  _402
REMARK  152  A    between atoms: _402  and  _403
REMARK  153  A    between atoms: _412  and  _414
REMARK  154  A    between atoms: _414  and  _415
REMARK  155  A    between atoms: _414  and  _417
REMARK  156  A    between atoms: _417  and  _418
REMARK  157  A    between atoms: _418  and  _419
REMARK  158  A    between atoms: _422  and  _424
REMARK  159  A    between atoms: _424  and  _425
REMARK  160  A    between atoms: _427  and  _429
REMARK  161  A    between atoms: _429  and  _430
REMARK  162  A    between atoms: _429  and  _432
REMARK  163  A    between atoms: _432  and  _433
REMARK  164  A    between atoms: _439  and  _440
REMARK  165  A    between atoms: _445  and  _447
REMARK  166  A    between atoms: _447  and  _448
REMARK  167  A    between atoms: _447  and  _450
REMARK  168  A    between atoms: _450  and  _451
REMARK  169  A    between atoms: _457  and  _459
REMARK  170  A    between atoms: _459  and  _460
REMARK  171  A    between atoms: _459  and  _462
REMARK  172  A    between atoms: _462  and  _463
REMARK  173  A    between atoms: _468  and  _470
REMARK  174  A    between atoms: _470  and  _471
REMARK  175  A    between atoms: _470  and  _473
REMARK  176  A    between atoms: _473  and  _474
REMARK  177  A    between atoms: _474  and  _475
REMARK  178  A    between atoms: _475  and  _476
REMARK  179  A    between atoms: _476  and  ZN_722
REMARK  180  A    between atoms: _478  and  _480
REMARK  181  A    between atoms: _480  and  _481
REMARK  182  A    between atoms: _484  and  _486
REMARK  183  A    between atoms: _486  and  _487
REMARK  184  A    between atoms: _489  and  _491
REMARK  185  A    between atoms: _491  and  _492
REMARK  186  A    between atoms: _491  and  _494
REMARK  187  A    between atoms: _494  and  _495
REMARK  188  A    between atoms: _498  and  _500
REMARK  189  A    between atoms: _500  and  _501
REMARK  190  A    between atoms: _504  and  _506
REMARK  191  A    between atoms: _506  and  _507
REMARK  192  A    between atoms: _506  and  _509
REMARK  193  A    between atoms: _509  and  _510
REMARK  194  A    between atoms: _513  and  _515
REMARK  195  A    between atoms: _515  and  _516
REMARK  196  A    between atoms: _515  and  _518
REMARK  197  A    between atoms: _518  and  _519
REMARK  198  A    between atoms: _519  and  _520
REMARK  199  A    between atoms: _520  and  _521
REMARK  200  A    between atoms: _521  and  _522
REMARK  201  A    between atoms: _526  and  _528
REMARK  202  A    between atoms: _528  and  _529
REMARK  203  A    between atoms: _528  and  _531
REMARK  204  A    between atoms: _531  and  _532
REMARK  205  A    between atoms: _538  and  _540
REMARK  206  A    between atoms: _540  and  _541
REMARK  207  A    between atoms: _540  and  _543
REMARK  208  A    between atoms: _543  and  _544
REMARK  209  A    between atoms: _550  and  _552
REMARK  210  A    between atoms: _552  and  _553
REMARK  211  A    between atoms: _552  and  _555
REMARK  212  A    between atoms: _555  and  _556
REMARK  213  A    between atoms: _558  and  _560
REMARK  214  A    between atoms: _560  and  _561
REMARK  215  A    between atoms: _560  and  _563
REMARK  216  A    between atoms: _566  and  _568
REMARK  217  A    between atoms: _568  and  _569
REMARK  218  A    between atoms: _568  and  _571
REMARK  219  A    between atoms: _571  and  _572
REMARK  220  A    between atoms: _572  and  _573
REMARK  221  A    between atoms: _573  and  _574
REMARK  222  A    between atoms: _574  and  _575
REMARK  223  A    between atoms: _579  and  _581
REMARK  224  A    between atoms: _581  and  _582
REMARK  225  A    between atoms: _581  and  _584
REMARK  226  A    between atoms: _584  and  _585
REMARK  227  A    between atoms: _591  and  _593
REMARK  228  A    between atoms: _593  and  _594
REMARK  229  A    between atoms: _593  and  _596
REMARK  230  A    between atoms: _596  and  _597
REMARK  231  A    between atoms: _602  and  _604
REMARK  232  A    between atoms: _604  and  _605
REMARK  233  A    between atoms: _604  and  _607
REMARK  234  A    between atoms: _607  and  _608
REMARK  235  A    between atoms: _610  and  _612
REMARK  236  A    between atoms: _612  and  _613
REMARK  237  A    between atoms: _612  and  _615
REMARK  238  A    between atoms: _615  and  _616
REMARK  239  A    between atoms: _618  and  _620
REMARK  240  A    between atoms: _620  and  _621
REMARK  241  A    between atoms: _620  and  _623
REMARK  242  A    between atoms: _627  and  _628
REMARK  243  A    between atoms: _633  and  _635
REMARK  244  A    between atoms: _635  and  _636
REMARK  245  A    between atoms: _635  and  _638
REMARK  246  A    between atoms: _638  and  _639
REMARK  247  A    between atoms: _644  and  _645
REMARK  248  A    between atoms: _647  and  _649
REMARK  249  A    between atoms: _649  and  _650
REMARK  250  A    between atoms: _649  and  _652
REMARK  251  A    between atoms: _652  and  _653
REMARK  252  A    between atoms: _653  and  _654
REMARK  253  A    between atoms: _654  and  _655
REMARK  254  A    between atoms: _664  and  _666
REMARK  255  A    between atoms: _666  and  _667
REMARK  256  A    between atoms: _666  and  _669
REMARK  257  A    between atoms: _669  and  _670
REMARK  258  A    between atoms: _675  and  _676
REMARK  259  A    between atoms: _678  and  _680
REMARK  260  A    between atoms: _680  and  _681
REMARK  261  A    between atoms: _680  and  _683
REMARK  262  A    between atoms: _683  and  _684
REMARK  263  A    between atoms: _690  and  _692
REMARK  264  A    between atoms: _692  and  _693
REMARK  265  A    between atoms: _692  and  _695
REMARK  266  A    between atoms: _695  and  _696
REMARK  267  A    between atoms: _698  and  _700
REMARK  268  A    between atoms: _700  and  _701
REMARK  269  A    between atoms: _700  and  _703
REMARK  270  A    between atoms: _703  and  _704
REMARK  271  A    between atoms: _710  and  _712
REMARK  272  A    between atoms: _712  and  _713
REMARK  273  A    between atoms: _712  and  _715
REMARK  274  A    between atoms: _715  and  _716
REMARK  275  A    between atoms: _716  and  _717
REMARK                            x       y       z     vdW  Elec       q    Type
REMARK                         _______ _______ _______ _____ _____    ______ ____
ROOT
ATOM      1  C   TYR A   1      50.230  45.482  53.420  0.00  0.00    +0.239 C 
ATOM      2  N   PHE A   2      49.818  44.486  54.215  0.00  0.00    -0.298 N 
ATOM      3  H   PHE A   2      49.714  43.539  53.799  0.00  0.00    +0.150 HD
ATOM      4  O   TYR A   1      50.343  46.648  53.782  0.00  0.00    -0.274 OA
ENDROOT
BRANCH   1   5
ATOM      5  CA  TYR A   1      50.593  45.102  51.991  0.00  0.00    +0.149 C 
BRANCH   5   6
ATOM      6  N   TYR A   1      51.368  43.869  51.981  0.00  0.00    -0.238 NA
ATOM      7  H   TYR A   1      50.940  43.005  51.591  0.00  0.00    +0.142 HD
ENDBRANCH   5   6
BRANCH   5   8
ATOM      8  CB  TYR A   1      49.338  44.976  51.120  0.00  0.00    +0.053 C 
BRANCH   8   9
ATOM      9  CG  TYR A   1      49.055  46.191  50.255  0.00  0.00    -0.020 A 
ATOM     10  CD2 TYR A   1      49.129  47.478  50.778  0.00  0.00    -0.001 A 
ATOM     11  CE2 TYR A   1      48.879  48.587  49.992  0.00  0.00    +0.036 A 
ATOM     12  CZ  TYR A   1      48.558  48.421  48.655  0.00  0.00    +0.134 A 
ATOM     13  CE1 TYR A   1      48.481  47.154  48.112  0.00  0.00    +0.036 A 
ATOM     14  CD1 TYR A   1      48.735  46.049  48.912  0.00  0.00    -0.001 A 
BRANCH  12  15
ATOM     15  OH  TYR A   1      48.312  49.528  47.866  0.00  0.00    -0.506 OA
ATOM     16  HH  TYR A   1      47.546  50.033  48.238  0.00  0.00    +0.292 HD
ENDBRANCH  12  15
ENDBRANCH   8   9
ENDBRANCH   5   8
ENDBRANCH   1   5
BRANCH   2  17
ATOM     17  CA  PHE A   2      49.504  44.654  55.644  0.00  0.00    +0.141 C 
BRANCH  17  18
ATOM     18  C   PHE A   2      50.665  45.281  56.409  0.00  0.00    +0.227 C 
ATOM     19  O   PHE A   2      50.473  46.178  57.230  0.00  0.00    -0.286 OA
ENDBRANCH  17  18
BRANCH  17  20
ATOM     20  CB  PHE A   2      49.167  43.309  56.317  0.00  0.00    +0.054 C 
BRANCH  20  21
ATOM     21  CG  PHE A   2      47.977  42.589  55.735  0.00  0.00    -0.020 A 
ATOM     22  CD2 PHE A   2      47.943  41.194  55.731  0.00  0.00    -0.004 A 
ATOM     23  CE2 PHE A   2      46.856  40.502  55.204  0.00  0.00    -0.000 A 
ATOM     24  CZ  PHE A   2      45.777  41.205  54.678  0.00  0.00    -0.000 A 
ATOM     25  CE1 PHE A   2      45.795  42.605  54.669  0.00  0.00    -0.000 A 
ATOM     26  CD1 PHE A   2      46.892  43.287  55.201  0.00  0.00    -0.004 A 
ENDBRANCH  20  21
ENDBRANCH  17  20
ENDBRANCH   2  17
TORSDOF 9
REMARK  Name = ../refined-set-2016/2oc2/2oc2_pocket.pdb
REMARK  275 active torsions:
REMARK  status: ('A' for Active; 'I' for Inactive)
REMARK    1  A    between atoms: _1  and  _3
REMARK    2  A    between atoms: _3  and  _4
REMARK    3  A    between atoms: _3  and  _6
REMARK    4  A    between atoms: _6  and  _7
REMARK    5  A    between atoms: _12  and  _14
REMARK    6  A    between atoms: _14  and  _15
REMARK    7  A    between atoms: _14  and  _17
REMARK    8  A    between atoms: _17  and  _18
REMARK    9  A    between atoms: _23  and  _25
REMARK   10  A    between atoms: _25  and  _26
REMARK   11  A    between atoms: _25  and  _28
REMARK   12  A    between atoms: _28  and  _29
REMARK   13  A    between atoms: _29  and  _30
REMARK   14  A    between atoms: _33  and  _35
REMARK   15  A    between atoms: _35  and  _36
REMARK   16  A    between atoms: _35  and  _38
REMARK   17  A    between atoms: _38  and  _39
REMARK   18  A    between atoms: _44  and  _45
REMARK   19  A    between atoms: _47  and  _49
REMARK   20  A    between atoms: _49  and  _50
REMARK   21  A    between atoms: _49  and  _52
REMARK   22  A    between atoms: _52  and  _53
REMARK   23  A    between atoms: _53  and  _54
REMARK   24  A    between atoms: _57  and  _59
REMARK   25  A    between atoms: _59  and  _60
REMARK   26  A    between atoms: _59  and  _62
REMARK   27  A    between atoms: _62  and  _63
REMARK   28  A    between atoms: _68  and  _70
REMARK   29  A    between atoms: _70  and  _71
REMARK   30  A    between atoms: _70  and  _73
REMARK   31  A    between atoms: _73  and  _74
REMARK   32  A    between atoms: _84  and  _86
REMARK   33  A    between atoms: _86  and  _87
REMARK   34  A    between atoms: _86  and  _89
REMARK   35  A    between atoms: _89  and  _90
REMARK   36  A    between atoms: _90  and  _91
REMARK   37  A    between atoms: _96  and  _98
REMARK   38  A    between atoms: _98  and  _99
REMARK   39  A    between atoms: _98  and  _101
REMARK   40  A    between atoms: _101  and  _102
REMARK   41  A    between atoms: _105  and  _107
REMARK   42  A    between atoms: _107  and  _108
REMARK   43  A    between atoms: _107  and  _110
REMARK   44  A    between atoms: _113  and  _115
REMARK   45  A    between atoms: _115  and  _116
REMARK   46  A    between atoms: _115  and  _118
REMARK   47  A    between atoms: _118  and  _119
REMARK   48  A    between atoms: _119  and  _247
REMARK   49  A    between atoms: _120  and  _122
REMARK   50  A    between atoms: _122  and  _123
REMARK   51  A    between atoms: _122  and  _125
REMARK   52  A    between atoms: _125  and  _126
REMARK   53  A    between atoms: _131  and  _133
REMARK   54  A    between atoms: _133  and  _134
REMARK   55  A    between atoms: _137  and  _139
REMARK   56  A    between atoms: _139  and  _140
REMARK   57  A    between atoms: _139  and  _142
REMARK   58  A    between atoms: _142  and  _143
REMARK   59  A    between atoms: _145  and  _147
REMARK   60  A    between atoms: _147  and  _148
REMARK   61  A    between atoms: _151  and  _153
REMARK   62  A    between atoms: _153  and  _154
REMARK   63  A    between atoms: _153  and  _156
REMARK   64  A    between atoms: _156  and  _157
REMARK   65  A    between atoms: _167  and  _169
REMARK   66  A    between atoms: _169  and  _170
REMARK   67  A    between atoms: _169  and  _172
REMARK   68  A    between atoms: _172  and  _173
REMARK   69  A    between atoms: _176  and  _178
REMARK   70  A    between atoms: _178  and  _179
REMARK   71  A    between atoms: _178  and  _181
REMARK   72  A    between atoms: _181  and  _182
REMARK   73  A    between atoms: _187  and  _188
REMARK   74  A    between atoms: _190  and  _192
REMARK   75  A    between atoms: _192  and  _193
REMARK   76  A    between atoms: _192  and  _195
REMARK   77  A    between atoms: _195  and  _196
REMARK   78  A    between atoms: _196  and  _197
REMARK   79  A    between atoms: _197  and  _198
REMARK   80  A    between atoms: _207  and  _209
REMARK   81  A    between atoms: _209  and  _210
REMARK   82  A    between atoms: _209  and  _212
REMARK   83  A    between atoms: _212  and  _213
REMARK   84  A    between atoms: _216  and  _218
REMARK   85  A    between atoms: _218  and  _219
REMARK   86  A    between atoms: _218  and  _221
REMARK   87  A    between atoms: _221  and  _222
REMARK   88  A    between atoms: _222  and  _223
REMARK   89  A    between atoms: _223  and  _224
REMARK   90  A    between atoms: _224  and  _225
REMARK   91  A    between atoms: _229  and  _231
REMARK   92  A    between atoms: _231  and  _232
REMARK   93  A    between atoms: _231  and  _234
REMARK   94  A    between atoms: _234  and  _235
REMARK   95  A    between atoms: _235  and  _236
REMARK   96  A    between atoms: _241  and  _243
REMARK   97  A    between atoms: _243  and  _244
REMARK   98  A    between atoms: _243  and  _246
REMARK   99  A    between atoms: _246  and  _247
REMARK  100  A    between atoms: _248  and  _250
REMARK  101  A    between atoms: _250  and  _251
REMARK  102  A    between atoms: _250  and  _253
REMARK  103  A    between atoms: _253  and  _254
REMARK  104  A    between atoms: _254  and  _255
REMARK  105  A    between atoms: _258  and  _260
REMARK  106  A    between atoms: _260  and  _261
REMARK  107  A    between atoms: _260  and  _263
REMARK  108  A    between atoms: _263  and  _264
REMARK  109  A    between atoms: _267  and  _269
REMARK  110  A    between atoms: _269  and  _270
REMARK  111  A    between atoms: _269  and  _272
REMARK  112  A    between atoms: _275  and  _277
REMARK  113  A    between atoms: _277  and  _278
REMARK  114  A    between atoms: _277  and  _280
REMARK  115  A    between atoms: _283  and  _285
REMARK  116  A    between atoms: _285  and  _286
REMARK  117  A    between atoms: _289  and  _291
REMARK  118  A    between atoms: _291  and  _292
REMARK  119  A    between atoms: _291  and  _294
REMARK  120  A    between atoms: _294  and  _295
REMARK  121  A    between atoms: _300  and  _302
REMARK  122  A    between atoms: _313  and  _316
REMARK  123  A    between atoms: _316  and  _317
REMARK  124  A    between atoms: _317  and  _318
REMARK  125  A    between atoms: _323  and  _326
REMARK  126  A    between atoms: _326  and  _327
REMARK  127  A    between atoms: _327  and  _328
REMARK  128  A    between atoms: _337  and  _338
REMARK  129  A    between atoms: _346  and  _348
REMARK  130  A    between atoms: _348  and  _349
REMARK  131  A    between atoms: _348  and  _351
REMARK  132  A    between atoms: _351  and  _352
REMARK  133  A    between atoms: _355  and  _357
REMARK  134  A    between atoms: _357  and  _358
REMARK  135  A    between atoms: _357  and  _360
REMARK  136  A    between atoms: _360  and  _361
REMARK  137  A    between atoms: _366  and  _367
REMARK  138  A    between atoms: _369  and  _371
REMARK  139  A    between atoms: _371  and  _372
REMARK  140  A    between atoms: _371  and  _374
REMARK  141  A    between atoms: _374  and  _375
REMARK  142  A    between atoms: _381  and  _383
REMARK  143  A    between atoms: _383  and  _384
REMARK  144  A    between atoms: _383  and  _386
REMARK  145  A    between atoms: _386  and  _387
REMARK  146  A    between atoms: _392  and  _393
REMARK  147  A    between atoms: _395  and  _397
REMARK  148  A    between atoms: _397  and  _398
REMARK  149  A    between atoms: _397  and  _400
REMARK  150  A    between atoms: _400  and  _401
REMARK  151  A    between atoms: _401  and  _402
REMARK  152  A    between atoms: _402  and  _403
REMARK  153  A    between atoms: _412  and  _414
REMARK  154  A    between atoms: _414  and  _415
REMARK  155  A    between atoms: _414  and  _417
REMARK  156  A    between atoms: _417  and  _418
REMARK  157  A    between atoms: _418  and  _419
REMARK  158  A    between atoms: _422  and  _424
REMARK  159  A    between atoms: _424  and  _425
REMARK  160  A    between atoms: _427  and  _429
REMARK  161  A    between atoms: _429  and  _430
REMARK  162  A    between atoms: _429  and  _432
REMARK  163  A    between atoms: _432  and  _433
REMARK  164  A    between atoms: _439  and  _440
REMARK  165  A    between atoms: _445  and  _447
REMARK  166  A    between atoms: _447  and  _448
REMARK  167  A    between atoms: _447  and  _450
REMARK  168  A    between atoms: _450  and  _451
REMARK  169  A    between atoms: _457  and  _459
REMARK  170  A    between atoms: _459  and  _460
REMARK  171  A    between atoms: _459  and  _462
REMARK  172  A    between atoms: _462  and  _463
REMARK  173  A    between atoms: _468  and  _470
REMARK  174  A    between atoms: _470  and  _471
REMARK  175  A    between atoms: _470  and  _473
REMARK  176  A    between atoms: _473  and  _474
REMARK  177  A    between atoms: _474  and  _475
REMARK  178  A    between atoms: _475  and  _476
REMARK  179  A    between atoms: _476  and  ZN_722
REMARK  180  A    between atoms: _478  and  _480
REMARK  181  A    between atoms: _480  and  _481
REMARK  182  A    between atoms: _484  and  _486
REMARK  183  A    between atoms: _486  and  _487
REMARK  184  A    between atoms: _489  and  _491
REMARK  185  A    between atoms: _491  and  _492
REMARK  186  A    between atoms: _491  and  _494
REMARK  187  A    between atoms: _494  and  _495
REMARK  188  A    between atoms: _498  and  _500
REMARK  189  A    between atoms: _500  and  _501
REMARK  190  A    between atoms: _504  and  _506
REMARK  191  A    between atoms: _506  and  _507
REMARK  192  A    between atoms: _506  and  _509
REMARK  193  A    between atoms: _509  and  _510
REMARK  194  A    between atoms: _513  and  _515
REMARK  195  A    between atoms: _515  and  _516
REMARK  196  A    between atoms: _515  and  _518
REMARK  197  A    between atoms: _518  and  _519
REMARK  198  A    between atoms: _519  and  _520
REMARK  199  A    between atoms: _520  and  _521
REMARK  200  A    between atoms: _521  and  _522
REMARK  201  A    between atoms: _526  and  _528
REMARK  202  A    between atoms: _528  and  _529
REMARK  203  A    between atoms: _528  and  _531
REMARK  204  A    between atoms: _531  and  _532
REMARK  205  A    between atoms: _538  and  _540
REMARK  206  A    between atoms: _540  and  _541
REMARK  207  A    between atoms: _540  and  _543
REMARK  208  A    between atoms: _543  and  _544
REMARK  209  A    between atoms: _550  and  _552
REMARK  210  A    between atoms: _552  and  _553
REMARK  211  A    between atoms: _552  and  _555
REMARK  212  A    between atoms: _555  and  _556
REMARK  213  A    between atoms: _558  and  _560
REMARK  214  A    between atoms: _560  and  _561
REMARK  215  A    between atoms: _560  and  _563
REMARK  216  A    between atoms: _566  and  _568
REMARK  217  A    between atoms: _568  and  _569
REMARK  218  A    between atoms: _568  and  _571
REMARK  219  A    between atoms: _571  and  _572
REMARK  220  A    between atoms: _572  and  _573
REMARK  221  A    between atoms: _573  and  _574
REMARK  222  A    between atoms: _574  and  _575
REMARK  223  A    between atoms: _579  and  _581
REMARK  224  A    between atoms: _581  and  _582
REMARK  225  A    between atoms: _581  and  _584
REMARK  226  A    between atoms: _584  and  _585
REMARK  227  A    between atoms: _591  and  _593
REMARK  228  A    between atoms: _593  and  _594
REMARK  229  A    between atoms: _593  and  _596
REMARK  230  A    between atoms: _596  and  _597
REMARK  231  A    between atoms: _602  and  _604
REMARK  232  A    between atoms: _604  and  _605
REMARK  233  A    between atoms: _604  and  _607
REMARK  234  A    between atoms: _607  and  _608
REMARK  235  A    between atoms: _610  and  _612
REMARK  236  A    between atoms: _612  and  _613
REMARK  237  A    between atoms: _612  and  _615
REMARK  238  A    between atoms: _615  and  _616
REMARK  239  A    between atoms: _618  and  _620
REMARK  240  A    between atoms: _620  and  _621
REMARK  241  A    between atoms: _620  and  _623
REMARK  242  A    between atoms: _627  and  _628
REMARK  243  A    between atoms: _633  and  _635
REMARK  244  A    between atoms: _635  and  _636
REMARK  245  A    between atoms: _635  and  _638
REMARK  246  A    between atoms: _638  and  _639
REMARK  247  A    between atoms: _644  and  _645
REMARK  248  A    between atoms: _647  and  _649
REMARK  249  A    between atoms: _649  and  _650
REMARK  250  A    between atoms: _649  and  _652
REMARK  251  A    between atoms: _652  and  _653
REMARK  252  A    between atoms: _653  and  _654
REMARK  253  A    between atoms: _654  and  _655
REMARK  254  A    between atoms: _664  and  _666
REMARK  255  A    between atoms: _666  and  _667
REMARK  256  A    between atoms: _666  and  _669
REMARK  257  A    between atoms: _669  and  _670
REMARK  258  A    between atoms: _675  and  _676
REMARK  259  A    between atoms: _678  and  _680
REMARK  260  A    between atoms: _680  and  _681
REMARK  261  A    between atoms: _680  and  _683
REMARK  262  A    between atoms: _683  and  _684
REMARK  263  A    between atoms: _690  and  _692
REMARK  264  A    between atoms: _692  and  _693
REMARK  265  A    between atoms: _692  and  _695
REMARK  266  A    between atoms: _695  and  _696
REMARK  267  A    between atoms: _698  and  _700
REMARK  268  A    between atoms: _700  and  _701
REMARK  269  A    between atoms: _700  and  _703
REMARK  270  A    between atoms: _703  and  _704
REMARK  271  A    between atoms: _710  and  _712
REMARK  272  A    between atoms: _712  and  _713
REMARK  273  A    between atoms: _712  and  _715
REMARK  274  A    between atoms: _715  and  _716
REMARK  275  A    between atoms: _716  and  _717
REMARK                            x       y       z     vdW  Elec       q    Type
REMARK                         _______ _______ _______ _____ _____    ______ ____
ROOT
ATOM      1  CG  TYR A   1      48.554  49.305  54.826  0.00  0.00    -0.020 A 
ATOM      2  CD2 TYR A   1      48.122  48.537  55.920  0.00  0.00    -0.001 A 
ATOM      3  CE2 TYR A   1      47.191  47.514  55.771  0.00  0.00    +0.036 A 
ATOM      4  CZ  TYR A   1      46.651  47.269  54.530  0.00  0.00    +0.134 A 
ATOM      5  CE1 TYR A   1      47.047  48.024  53.432  0.00  0.00    +0.036 A 
ATOM      6  CD1 TYR A   1      47.988  49.037  53.587  0.00  0.00    -0.001 A 
ENDROOT
BRANCH   4   7
ATOM      7  OH  TYR A   1      45.717  46.273  54.373  0.00  0.00    -0.506 OA
ATOM      8  HH  TYR A   1      45.550  45.838  55.246  0.00  0.00    +0.292 HD
ENDBRANCH   4   7
BRANCH   1   9
ATOM      9  CB  TYR A   1      49.567  50.445  54.985  0.00  0.00    +0.051 C 
BRANCH   9  10
ATOM     10  CA  TYR A   1      50.787  50.208  55.900  0.00  0.00    +0.137 C 
BRANCH  10  11
ATOM     11  N   TYR A   1      51.655  49.156  55.381  0.00  0.00    -0.239 NA
ATOM     12  H   TYR A   1      51.243  48.228  55.157  0.00  0.00    +0.142 HD
ENDBRANCH  10  11
BRANCH  10  13
ATOM     13  C   TYR A   1      50.368  50.007  57.356  0.00  0.00    +0.224 C 
ATOM     14  O   TYR A   1      49.464  50.681  57.839  0.00  0.00    -0.287 OA
ENDBRANCH  10  13
ENDBRANCH   9  10
ENDBRANCH   1   9
TORSDOF 5
REMARK  Name = ../refined-set-2016/2oc2/2oc2_pocket.pdb
REMARK  275 active torsions:
REMARK  status: ('A' for Active; 'I' for Inactive)
REMARK    1  A    between atoms: _1  and  _3
REMARK    2  A    between atoms: _3  and  _4
REMARK    3  A    between atoms: _3  and  _6
REMARK    4  A    between atoms: _6  and  _7
REMARK    5  A    between atoms: _12  and  _14
REMARK    6  A    between atoms: _14  and  _15
REMARK    7  A    between atoms: _14  and  _17
REMARK    8  A    between atoms: _17  and  _18
REMARK    9  A    between atoms: _23  and  _25
REMARK   10  A    between atoms: _25  and  _26
REMARK   11  A    between atoms: _25  and  _28
REMARK   12  A    between atoms: _28  and  _29
REMARK   13  A    between atoms: _29  and  _30
REMARK   14  A    between atoms: _33  and  _35
REMARK   15  A    between atoms: _35  and  _36
REMARK   16  A    between atoms: _35  and  _38
REMARK   17  A    between atoms: _38  and  _39
REMARK   18  A    between atoms: _44  and  _45
REMARK   19  A    between atoms: _47  and  _49
REMARK   20  A    between atoms: _49  and  _50
REMARK   21  A    between atoms: _49  and  _52
REMARK   22  A    between atoms: _52  and  _53
REMARK   23  A    between atoms: _53  and  _54
REMARK   24  A    between atoms: _57  and  _59
REMARK   25  A    between atoms: _59  and  _60
REMARK   26  A    between atoms: _59  and  _62
REMARK   27  A    between atoms: _62  and  _63
REMARK   28  A    between atoms: _68  and  _70
REMARK   29  A    between atoms: _70  and  _71
REMARK   30  A    between atoms: _70  and  _73
REMARK   31  A    between atoms: _73  and  _74
REMARK   32  A    between atoms: _84  and  _86
REMARK   33  A    between atoms: _86  and  _87
REMARK   34  A    between atoms: _86  and  _89
REMARK   35  A    between atoms: _89  and  _90
REMARK   36  A    between atoms: _90  and  _91
REMARK   37  A    between atoms: _96  and  _98
REMARK   38  A    between atoms: _98  and  _99
REMARK   39  A    between atoms: _98  and  _101
REMARK   40  A    between atoms: _101  and  _102
REMARK   41  A    between atoms: _105  and  _107
REMARK   42  A    between atoms: _107  and  _108
REMARK   43  A    between atoms: _107  and  _110
REMARK   44  A    between atoms: _113  and  _115
REMARK   45  A    between atoms: _115  and  _116
REMARK   46  A    between atoms: _115  and  _118
REMARK   47  A    between atoms: _118  and  _119
REMARK   48  A    between atoms: _119  and  _247
REMARK   49  A    between atoms: _120  and  _122
REMARK   50  A    between atoms: _122  and  _123
REMARK   51  A    between atoms: _122  and  _125
REMARK   52  A    between atoms: _125  and  _126
REMARK   53  A    between atoms: _131  and  _133
REMARK   54  A    between atoms: _133  and  _134
REMARK   55  A    between atoms: _137  and  _139
REMARK   56  A    between atoms: _139  and  _140
REMARK   57  A    between atoms: _139  and  _142
REMARK   58  A    between atoms: _142  and  _143
REMARK   59  A    between atoms: _145  and  _147
REMARK   60  A    between atoms: _147  and  _148
REMARK   61  A    between atoms: _151  and  _153
REMARK   62  A    between atoms: _153  and  _154
REMARK   63  A    between atoms: _153  and  _156
REMARK   64  A    between atoms: _156  and  _157
REMARK   65  A    between atoms: _167  and  _169
REMARK   66  A    between atoms: _169  and  _170
REMARK   67  A    between atoms: _169  and  _172
REMARK   68  A    between atoms: _172  and  _173
REMARK   69  A    between atoms: _176  and  _178
REMARK   70  A    between atoms: _178  and  _179
REMARK   71  A    between atoms: _178  and  _181
REMARK   72  A    between atoms: _181  and  _182
REMARK   73  A    between atoms: _187  and  _188
REMARK   74  A    between atoms: _190  and  _192
REMARK   75  A    between atoms: _192  and  _193
REMARK   76  A    between atoms: _192  and  _195
REMARK   77  A    between atoms: _195  and  _196
REMARK   78  A    between atoms: _196  and  _197
REMARK   79  A    between atoms: _197  and  _198
REMARK   80  A    between atoms: _207  and  _209
REMARK   81  A    between atoms: _209  and  _210
REMARK   82  A    between atoms: _209  and  _212
REMARK   83  A    between atoms: _212  and  _213
REMARK   84  A    between atoms: _216  and  _218
REMARK   85  A    between atoms: _218  and  _219
REMARK   86  A    between atoms: _218  and  _221
REMARK   87  A    between atoms: _221  and  _222
REMARK   88  A    between atoms: _222  and  _223
REMARK   89  A    between atoms: _223  and  _224
REMARK   90  A    between atoms: _224  and  _225
REMARK   91  A    between atoms: _229  and  _231
REMARK   92  A    between atoms: _231  and  _232
REMARK   93  A    between atoms: _231  and  _234
REMARK   94  A    between atoms: _234  and  _235
REMARK   95  A    between atoms: _235  and  _236
REMARK   96  A    between atoms: _241  and  _243
REMARK   97  A    between atoms: _243  and  _244
REMARK   98  A    between atoms: _243  and  _246
REMARK   99  A    between atoms: _246  and  _247
REMARK  100  A    between atoms: _248  and  _250
REMARK  101  A    between atoms: _250  and  _251
REMARK  102  A    between atoms: _250  and  _253
REMARK  103  A    between atoms: _253  and  _254
REMARK  104  A    between atoms: _254  and  _255
REMARK  105  A    between atoms: _258  and  _260
REMARK  106  A    between atoms: _260  and  _261
REMARK  107  A    between atoms: _260  and  _263
REMARK  108  A    between atoms: _263  and  _264
REMARK  109  A    between atoms: _267  and  _269
REMARK  110  A    between atoms: _269  and  _270
REMARK  111  A    between atoms: _269  and  _272
REMARK  112  A    between atoms: _275  and  _277
REMARK  113  A    between atoms: _277  and  _278
REMARK  114  A    between atoms: _277  and  _280
REMARK  115  A    between atoms: _283  and  _285
REMARK  116  A    between atoms: _285  and  _286
REMARK  117  A    between atoms: _289  and  _291
REMARK  118  A    between atoms: _291  and  _292
REMARK  119  A    between atoms: _291  and  _294
REMARK  120  A    between atoms: _294  and  _295
REMARK  121  A    between atoms: _300  and  _302
REMARK  122  A    between atoms: _313  and  _316
REMARK  123  A    between atoms: _316  and  _317
REMARK  124  A    between atoms: _317  and  _318
REMARK  125  A    between atoms: _323  and  _326
REMARK  126  A    between atoms: _326  and  _327
REMARK  127  A    between atoms: _327  and  _328
REMARK  128  A    between atoms: _337  and  _338
REMARK  129  A    between atoms: _346  and  _348
REMARK  130  A    between atoms: _348  and  _349
REMARK  131  A    between atoms: _348  and  _351
REMARK  132  A    between atoms: _351  and  _352
REMARK  133  A    between atoms: _355  and  _357
REMARK  134  A    between atoms: _357  and  _358
REMARK  135  A    between atoms: _357  and  _360
REMARK  136  A    between atoms: _360  and  _361
REMARK  137  A    between atoms: _366  and  _367
REMARK  138  A    between atoms: _369  and  _371
REMARK  139  A    between atoms: _371  and  _372
REMARK  140  A    between atoms: _371  and  _374
REMARK  141  A    between atoms: _374  and  _375
REMARK  142  A    between atoms: _381  and  _383
REMARK  143  A    between atoms: _383  and  _384
REMARK  144  A    between atoms: _383  and  _386
REMARK  145  A    between atoms: _386  and  _387
REMARK  146  A    between atoms: _392  and  _393
REMARK  147  A    between atoms: _395  and  _397
REMARK  148  A    between atoms: _397  and  _398
REMARK  149  A    between atoms: _397  and  _400
REMARK  150  A    between atoms: _400  and  _401
REMARK  151  A    between atoms: _401  and  _402
REMARK  152  A    between atoms: _402  and  _403
REMARK  153  A    between atoms: _412  and  _414
REMARK  154  A    between atoms: _414  and  _415
REMARK  155  A    between atoms: _414  and  _417
REMARK  156  A    between atoms: _417  and  _418
REMARK  157  A    between atoms: _418  and  _419
REMARK  158  A    between atoms: _422  and  _424
REMARK  159  A    between atoms: _424  and  _425
REMARK  160  A    between atoms: _427  and  _429
REMARK  161  A    between atoms: _429  and  _430
REMARK  162  A    between atoms: _429  and  _432
REMARK  163  A    between atoms: _432  and  _433
REMARK  164  A    between atoms: _439  and  _440
REMARK  165  A    between atoms: _445  and  _447
REMARK  166  A    between atoms: _447  and  _448
REMARK  167  A    between atoms: _447  and  _450
REMARK  168  A    between atoms: _450  and  _451
REMARK  169  A    between atoms: _457  and  _459
REMARK  170  A    between atoms: _459  and  _460
REMARK  171  A    between atoms: _459  and  _462
REMARK  172  A    between atoms: _462  and  _463
REMARK  173  A    between atoms: _468  and  _470
REMARK  174  A    between atoms: _470  and  _471
REMARK  175  A    between atoms: _470  and  _473
REMARK  176  A    between atoms: _473  and  _474
REMARK  177  A    between atoms: _474  and  _475
REMARK  178  A    between atoms: _475  and  _476
REMARK  179  A    between atoms: _476  and  ZN_722
REMARK  180  A    between atoms: _478  and  _480
REMARK  181  A    between atoms: _480  and  _481
REMARK  182  A    between atoms: _484  and  _486
REMARK  183  A    between atoms: _486  and  _487
REMARK  184  A    between atoms: _489  and  _491
REMARK  185  A    between atoms: _491  and  _492
REMARK  186  A    between atoms: _491  and  _494
REMARK  187  A    between atoms: _494  and  _495
REMARK  188  A    between atoms: _498  and  _500
REMARK  189  A    between atoms: _500  and  _501
REMARK  190  A    between atoms: _504  and  _506
REMARK  191  A    between atoms: _506  and  _507
REMARK  192  A    between atoms: _506  and  _509
REMARK  193  A    between atoms: _509  and  _510
REMARK  194  A    between atoms: _513  and  _515
REMARK  195  A    between atoms: _515  and  _516
REMARK  196  A    between atoms: _515  and  _518
REMARK  197  A    between atoms: _518  and  _519
REMARK  198  A    between atoms: _519  and  _520
REMARK  199  A    between atoms: _520  and  _521
REMARK  200  A    between atoms: _521  and  _522
REMARK  201  A    between atoms: _526  and  _528
REMARK  202  A    between atoms: _528  and  _529
REMARK  203  A    between atoms: _528  and  _531
REMARK  204  A    between atoms: _531  and  _532
REMARK  205  A    between atoms: _538  and  _540
REMARK  206  A    between atoms: _540  and  _541
REMARK  207  A    between atoms: _540  and  _543
REMARK  208  A    between atoms: _543  and  _544
REMARK  209  A    between atoms: _550  and  _552
REMARK  210  A    between atoms: _552  and  _553
REMARK  211  A    between atoms: _552  and  _555
REMARK  212  A    between atoms: _555  and  _556
REMARK  213  A    between atoms: _558  and  _560
REMARK  214  A    between atoms: _560  and  _561
REMARK  215  A    between atoms: _560  and  _563
REMARK  216  A    between atoms: _566  and  _568
REMARK  217  A    between atoms: _568  and  _569
REMARK  218  A    between atoms: _568  and  _571
REMARK  219  A    between atoms: _571  and  _572
REMARK  220  A    between atoms: _572  and  _573
REMARK  221  A    between atoms: _573  and  _574
REMARK  222  A    between atoms: _574  and  _575
REMARK  223  A    between atoms: _579  and  _581
REMARK  224  A    between atoms: _581  and  _582
REMARK  225  A    between atoms: _581  and  _584
REMARK  226  A    between atoms: _584  and  _585
REMARK  227  A    between atoms: _591  and  _593
REMARK  228  A    between atoms: _593  and  _594
REMARK  229  A    between atoms: _593  and  _596
REMARK  230  A    between atoms: _596  and  _597
REMARK  231  A    between atoms: _602  and  _604
REMARK  232  A    between atoms: _604  and  _605
REMARK  233  A    between atoms: _604  and  _607
REMARK  234  A    between atoms: _607  and  _608
REMARK  235  A    between atoms: _610  and  _612
REMARK  236  A    between atoms: _612  and  _613
REMARK  237  A    between atoms: _612  and  _615
REMARK  238  A    between atoms: _615  and  _616
REMARK  239  A    between atoms: _618  and  _620
REMARK  240  A    between atoms: _620  and  _621
REMARK  241  A    between atoms: _620  and  _623
REMARK  242  A    between atoms: _627  and  _628
REMARK  243  A    between atoms: _633  and  _635
REMARK  244  A    between atoms: _635  and  _636
REMARK  245  A    between atoms: _635  and  _638
REMARK  246  A    between atoms: _638  and  _639
REMARK  247  A    between atoms: _644  and  _645
REMARK  248  A    between atoms: _647  and  _649
REMARK  249  A    between atoms: _649  and  _650
REMARK  250  A    between atoms: _649  and  _652
REMARK  251  A    between atoms: _652  and  _653
REMARK  252  A    between atoms: _653  and  _654
REMARK  253  A    between atoms: _654  and  _655
REMARK  254  A    between atoms: _664  and  _666
REMARK  255  A    between atoms: _666  and  _667
REMARK  256  A    between atoms: _666  and  _669
REMARK  257  A    between atoms: _669  and  _670
REMARK  258  A    between atoms: _675  and  _676
REMARK  259  A    between atoms: _678  and  _680
REMARK  260  A    between atoms: _680  and  _681
REMARK  261  A    between atoms: _680  and  _683
REMARK  262  A    between atoms: _683  and  _684
REMARK  263  A    between atoms: _690  and  _692
REMARK  264  A    between atoms: _692  and  _693
REMARK  265  A    between atoms: _692  and  _695
REMARK  266  A    between atoms: _695  and  _696
REMARK  267  A    between atoms: _698  and  _700
REMARK  268  A    between atoms: _700  and  _701
REMARK  269  A    between atoms: _700  and  _703
REMARK  270  A    between atoms: _703  and  _704
REMARK  271  A    between atoms: _710  and  _712
REMARK  272  A    between atoms: _712  and  _713
REMARK  273  A    between atoms: _712  and  _715
REMARK  274  A    between atoms: _715  and  _716
REMARK  275  A    between atoms: _716  and  _717
REMARK                            x       y       z     vdW  Elec       q    Type
REMARK                         _______ _______ _______ _____ _____    ______ ____
ROOT
ATOM      1  C   ARG A   1      44.178  49.340  55.429  0.00  0.00    +0.238 C 
ATOM      2  O   ARG A   1      43.650  48.268  55.742  0.00  0.00    -0.274 OA
ATOM      3  N   GLU A   2      44.213  49.796  54.179  0.00  0.00    -0.297 N 
ATOM      4  H   GLU A   2      44.707  50.693  53.998  0.00  0.00    +0.150 HD
ENDROOT
BRANCH   1   5
ATOM      5  CA  ARG A   1      44.844  50.241  56.482  0.00  0.00    +0.145 C 
BRANCH   5   6
ATOM      6  N   ARG A   1      44.067  51.451  56.726  0.00  0.00    -0.238 NA
ATOM      7  H   ARG A   1      43.462  51.499  57.571  0.00  0.00    +0.142 HD
ENDBRANCH   5   6
BRANCH   5   8
ATOM      8  CB  ARG A   1      45.048  49.472  57.785  0.00  0.00    +0.030 C 
BRANCH   8   9
ATOM      9  CG  ARG A   1      46.068  50.073  58.733  0.00  0.00    +0.045 C 
BRANCH   9  10
ATOM     10  CD  ARG A   1      46.433  49.048  59.779  0.00  0.00    +0.174 C 
BRANCH  10  11
ATOM     11  NE  ARG A   1      46.893  49.655  61.019  0.00  0.00    -0.265 N 
ATOM     12  CZ  ARG A   1      47.163  48.976  62.128  0.00  0.00    +0.342 C 
ATOM     13  NH2 ARG A   1      47.573  49.619  63.209  0.00  0.00    -0.292 N 
ATOM     14 HH21 ARG A   1      47.785  49.091  64.079  0.00  0.00    +0.255 HD
ATOM     15 HH22 ARG A   1      47.683  50.653  63.189  0.00  0.00    +0.255 HD
ATOM     16  NH1 ARG A   1      47.024  47.655  62.158  0.00  0.00    -0.292 N 
ATOM     17 HH11 ARG A   1      47.237  47.129  63.030  0.00  0.00    +0.255 HD
ATOM     18 HH12 ARG A   1      46.702  47.147  61.310  0.00  0.00    +0.255 HD
ATOM     19  HE  ARG A   1      47.018  50.687  61.038  0.00  0.00    +0.259 HD
ENDBRANCH  10  11
ENDBRANCH   9  10
ENDBRANCH   8   9
ENDBRANCH   5   8
ENDBRANCH   1   5
BRANCH   3  20
ATOM     20  CA  GLU A   2      43.599  49.109  53.051  0.00  0.00    +0.149 C 
BRANCH  20  21
ATOM     21  C   GLU A   2      44.429  49.413  51.815  0.00  0.00    +0.241 C 
ATOM     22  O   GLU A   2      45.286  50.278  51.856  0.00  0.00    -0.273 OA
ATOM     23  N   GLY A   3      44.204  48.680  50.729  0.00  0.00    -0.296 N 
ATOM     24  H   GLY A   3      43.528  47.891  50.777  0.00  0.00    +0.150 HD
BRANCH  23  25
ATOM     25  CA  GLY A   3      44.891  48.964  49.465  0.00  0.00    +0.163 C 
BRANCH  25  26
ATOM     26  C   GLY A   3      44.408  50.302  48.957  0.00  0.00    +0.229 C 
ATOM     27  O   GLY A   3      43.344  50.762  49.362  0.00  0.00    -0.286 OA
ENDBRANCH  25  26
ENDBRANCH  23  25
ENDBRANCH  20  21
BRANCH  20  28
ATOM     28  CB  GLU A   2      42.170  49.601  52.856  0.00  0.00    +0.041 C 
BRANCH  28  29
ATOM     29  CG  GLU A   2      41.198  49.036  53.865  0.00  0.00    +0.116 C 
BRANCH  29  30
ATOM     30  CD  GLU A   2      39.810  49.611  53.723  0.00  0.00    +0.365 C 
ATOM     31  OE2 GLU A   2      38.877  49.024  54.318  0.00  0.00    -0.246 OA
ATOM     32  OE1 GLU A   2      39.649  50.642  53.021  0.00  0.00    -0.246 OA
ENDBRANCH  29  30
ENDBRANCH  28  29
ENDBRANCH  20  28
ENDBRANCH   3  20
TORSDOF 13
REMARK  Name = ../refined-set-2016/2oc2/2oc2_pocket.pdb
REMARK  275 active torsions:
REMARK  status: ('A' for Active; 'I' for Inactive)
REMARK    1  A    between atoms: _1  and  _3
REMARK    2  A    between atoms: _3  and  _4
REMARK    3  A    between atoms: _3  and  _6
REMARK    4  A    between atoms: _6  and  _7
REMARK    5  A    between atoms: _12  and  _14
REMARK    6  A    between atoms: _14  and  _15
REMARK    7  A    between atoms: _14  and  _17
REMARK    8  A    between atoms: _17  and  _18
REMARK    9  A    between atoms: _23  and  _25
REMARK   10  A    between atoms: _25  and  _26
REMARK   11  A    between atoms: _25  and  _28
REMARK   12  A    between atoms: _28  and  _29
REMARK   13  A    between atoms: _29  and  _30
REMARK   14  A    between atoms: _33  and  _35
REMARK   15  A    between atoms: _35  and  _36
REMARK   16  A    between atoms: _35  and  _38
REMARK   17  A    between atoms: _38  and  _39
REMARK   18  A    between atoms: _44  and  _45
REMARK   19  A    between atoms: _47  and  _49
REMARK   20  A    between atoms: _49  and  _50
REMARK   21  A    between atoms: _49  and  _52
REMARK   22  A    between atoms: _52  and  _53
REMARK   23  A    between atoms: _53  and  _54
REMARK   24  A    between atoms: _57  and  _59
REMARK   25  A    between atoms: _59  and  _60
REMARK   26  A    between atoms: _59  and  _62
REMARK   27  A    between atoms: _62  and  _63
REMARK   28  A    between atoms: _68  and  _70
REMARK   29  A    between atoms: _70  and  _71
REMARK   30  A    between atoms: _70  and  _73
REMARK   31  A    between atoms: _73  and  _74
REMARK   32  A    between atoms: _84  and  _86
REMARK   33  A    between atoms: _86  and  _87
REMARK   34  A    between atoms: _86  and  _89
REMARK   35  A    between atoms: _89  and  _90
REMARK   36  A    between atoms: _90  and  _91
REMARK   37  A    between atoms: _96  and  _98
REMARK   38  A    between atoms: _98  and  _99
REMARK   39  A    between atoms: _98  and  _101
REMARK   40  A    between atoms: _101  and  _102
REMARK   41  A    between atoms: _105  and  _107
REMARK   42  A    between atoms: _107  and  _108
REMARK   43  A    between atoms: _107  and  _110
REMARK   44  A    between atoms: _113  and  _115
REMARK   45  A    between atoms: _115  and  _116
REMARK   46  A    between atoms: _115  and  _118
REMARK   47  A    between atoms: _118  and  _119
REMARK   48  A    between atoms: _119  and  _247
REMARK   49  A    between atoms: _120  and  _122
REMARK   50  A    between atoms: _122  and  _123
REMARK   51  A    between atoms: _122  and  _125
REMARK   52  A    between atoms: _125  and  _126
REMARK   53  A    between atoms: _131  and  _133
REMARK   54  A    between atoms: _133  and  _134
REMARK   55  A    between atoms: _137  and  _139
REMARK   56  A    between atoms: _139  and  _140
REMARK   57  A    between atoms: _139  and  _142
REMARK   58  A    between atoms: _142  and  _143
REMARK   59  A    between atoms: _145  and  _147
REMARK   60  A    between atoms: _147  and  _148
REMARK   61  A    between atoms: _151  and  _153
REMARK   62  A    between atoms: _153  and  _154
REMARK   63  A    between atoms: _153  and  _156
REMARK   64  A    between atoms: _156  and  _157
REMARK   65  A    between atoms: _167  and  _169
REMARK   66  A    between atoms: _169  and  _170
REMARK   67  A    between atoms: _169  and  _172
REMARK   68  A    between atoms: _172  and  _173
REMARK   69  A    between atoms: _176  and  _178
REMARK   70  A    between atoms: _178  and  _179
REMARK   71  A    between atoms: _178  and  _181
REMARK   72  A    between atoms: _181  and  _182
REMARK   73  A    between atoms: _187  and  _188
REMARK   74  A    between atoms: _190  and  _192
REMARK   75  A    between atoms: _192  and  _193
REMARK   76  A    between atoms: _192  and  _195
REMARK   77  A    between atoms: _195  and  _196
REMARK   78  A    between atoms: _196  and  _197
REMARK   79  A    between atoms: _197  and  _198
REMARK   80  A    between atoms: _207  and  _209
REMARK   81  A    between atoms: _209  and  _210
REMARK   82  A    between atoms: _209  and  _212
REMARK   83  A    between atoms: _212  and  _213
REMARK   84  A    between atoms: _216  and  _218
REMARK   85  A    between atoms: _218  and  _219
REMARK   86  A    between atoms: _218  and  _221
REMARK   87  A    between atoms: _221  and  _222
REMARK   88  A    between atoms: _222  and  _223
REMARK   89  A    between atoms: _223  and  _224
REMARK   90  A    between atoms: _224  and  _225
REMARK   91  A    between atoms: _229  and  _231
REMARK   92  A    between atoms: _231  and  _232
REMARK   93  A    between atoms: _231  and  _234
REMARK   94  A    between atoms: _234  and  _235
REMARK   95  A    between atoms: _235  and  _236
REMARK   96  A    between atoms: _241  and  _243
REMARK   97  A    between atoms: _243  and  _244
REMARK   98  A    between atoms: _243  and  _246
REMARK   99  A    between atoms: _246  and  _247
REMARK  100  A    between atoms: _248  and  _250
REMARK  101  A    between atoms: _250  and  _251
REMARK  102  A    between atoms: _250  and  _253
REMARK  103  A    between atoms: _253  and  _254
REMARK  104  A    between atoms: _254  and  _255
REMARK  105  A    between atoms: _258  and  _260
REMARK  106  A    between atoms: _260  and  _261
REMARK  107  A    between atoms: _260  and  _263
REMARK  108  A    between atoms: _263  and  _264
REMARK  109  A    between atoms: _267  and  _269
REMARK  110  A    between atoms: _269  and  _270
REMARK  111  A    between atoms: _269  and  _272
REMARK  112  A    between atoms: _275  and  _277
REMARK  113  A    between atoms: _277  and  _278
REMARK  114  A    between atoms: _277  and  _280
REMARK  115  A    between atoms: _283  and  _285
REMARK  116  A    between atoms: _285  and  _286
REMARK  117  A    between atoms: _289  and  _291
REMARK  118  A    between atoms: _291  and  _292
REMARK  119  A    between atoms: _291  and  _294
REMARK  120  A    between atoms: _294  and  _295
REMARK  121  A    between atoms: _300  and  _302
REMARK  122  A    between atoms: _313  and  _316
REMARK  123  A    between atoms: _316  and  _317
REMARK  124  A    between atoms: _317  and  _318
REMARK  125  A    between atoms: _323  and  _326
REMARK  126  A    between atoms: _326  and  _327
REMARK  127  A    between atoms: _327  and  _328
REMARK  128  A    between atoms: _337  and  _338
REMARK  129  A    between atoms: _346  and  _348
REMARK  130  A    between atoms: _348  and  _349
REMARK  131  A    between atoms: _348  and  _351
REMARK  132  A    between atoms: _351  and  _352
REMARK  133  A    between atoms: _355  and  _357
REMARK  134  A    between atoms: _357  and  _358
REMARK  135  A    between atoms: _357  and  _360
REMARK  136  A    between atoms: _360  and  _361
REMARK  137  A    between atoms: _366  and  _367
REMARK  138  A    between atoms: _369  and  _371
REMARK  139  A    between atoms: _371  and  _372
REMARK  140  A    between atoms: _371  and  _374
REMARK  141  A    between atoms: _374  and  _375
REMARK  142  A    between atoms: _381  and  _383
REMARK  143  A    between atoms: _383  and  _384
REMARK  144  A    between atoms: _383  and  _386
REMARK  145  A    between atoms: _386  and  _387
REMARK  146  A    between atoms: _392  and  _393
REMARK  147  A    between atoms: _395  and  _397
REMARK  148  A    between atoms: _397  and  _398
REMARK  149  A    between atoms: _397  and  _400
REMARK  150  A    between atoms: _400  and  _401
REMARK  151  A    between atoms: _401  and  _402
REMARK  152  A    between atoms: _402  and  _403
REMARK  153  A    between atoms: _412  and  _414
REMARK  154  A    between atoms: _414  and  _415
REMARK  155  A    between atoms: _414  and  _417
REMARK  156  A    between atoms: _417  and  _418
REMARK  157  A    between atoms: _418  and  _419
REMARK  158  A    between atoms: _422  and  _424
REMARK  159  A    between atoms: _424  and  _425
REMARK  160  A    between atoms: _427  and  _429
REMARK  161  A    between atoms: _429  and  _430
REMARK  162  A    between atoms: _429  and  _432
REMARK  163  A    between atoms: _432  and  _433
REMARK  164  A    between atoms: _439  and  _440
REMARK  165  A    between atoms: _445  and  _447
REMARK  166  A    between atoms: _447  and  _448
REMARK  167  A    between atoms: _447  and  _450
REMARK  168  A    between atoms: _450  and  _451
REMARK  169  A    between atoms: _457  and  _459
REMARK  170  A    between atoms: _459  and  _460
REMARK  171  A    between atoms: _459  and  _462
REMARK  172  A    between atoms: _462  and  _463
REMARK  173  A    between atoms: _468  and  _470
REMARK  174  A    between atoms: _470  and  _471
REMARK  175  A    between atoms: _470  and  _473
REMARK  176  A    between atoms: _473  and  _474
REMARK  177  A    between atoms: _474  and  _475
REMARK  178  A    between atoms: _475  and  _476
REMARK  179  A    between atoms: _476  and  ZN_722
REMARK  180  A    between atoms: _478  and  _480
REMARK  181  A    between atoms: _480  and  _481
REMARK  182  A    between atoms: _484  and  _486
REMARK  183  A    between atoms: _486  and  _487
REMARK  184  A    between atoms: _489  and  _491
REMARK  185  A    between atoms: _491  and  _492
REMARK  186  A    between atoms: _491  and  _494
REMARK  187  A    between atoms: _494  and  _495
REMARK  188  A    between atoms: _498  and  _500
REMARK  189  A    between atoms: _500  and  _501
REMARK  190  A    between atoms: _504  and  _506
REMARK  191  A    between atoms: _506  and  _507
REMARK  192  A    between atoms: _506  and  _509
REMARK  193  A    between atoms: _509  and  _510
REMARK  194  A    between atoms: _513  and  _515
REMARK  195  A    between atoms: _515  and  _516
REMARK  196  A    between atoms: _515  and  _518
REMARK  197  A    between atoms: _518  and  _519
REMARK  198  A    between atoms: _519  and  _520
REMARK  199  A    between atoms: _520  and  _521
REMARK  200  A    between atoms: _521  and  _522
REMARK  201  A    between atoms: _526  and  _528
REMARK  202  A    between atoms: _528  and  _529
REMARK  203  A    between atoms: _528  and  _531
REMARK  204  A    between atoms: _531  and  _532
REMARK  205  A    between atoms: _538  and  _540
REMARK  206  A    between atoms: _540  and  _541
REMARK  207  A    between atoms: _540  and  _543
REMARK  208  A    between atoms: _543  and  _544
REMARK  209  A    between atoms: _550  and  _552
REMARK  210  A    between atoms: _552  and  _553
REMARK  211  A    between atoms: _552  and  _555
REMARK  212  A    between atoms: _555  and  _556
REMARK  213  A    between atoms: _558  and  _560
REMARK  214  A    between atoms: _560  and  _561
REMARK  215  A    between atoms: _560  and  _563
REMARK  216  A    between atoms: _566  and  _568
REMARK  217  A    between atoms: _568  and  _569
REMARK  218  A    between atoms: _568  and  _571
REMARK  219  A    between atoms: _571  and  _572
REMARK  220  A    between atoms: _572  and  _573
REMARK  221  A    between atoms: _573  and  _574
REMARK  222  A    between atoms: _574  and  _575
REMARK  223  A    between atoms: _579  and  _581
REMARK  224  A    between atoms: _581  and  _582
REMARK  225  A    between atoms: _581  and  _584
REMARK  226  A    between atoms: _584  and  _585
REMARK  227  A    between atoms: _591  and  _593
REMARK  228  A    between atoms: _593  and  _594
REMARK  229  A    between atoms: _593  and  _596
REMARK  230  A    between atoms: _596  and  _597
REMARK  231  A    between atoms: _602  and  _604
REMARK  232  A    between atoms: _604  and  _605
REMARK  233  A    between atoms: _604  and  _607
REMARK  234  A    between atoms: _607  and  _608
REMARK  235  A    between atoms: _610  and  _612
REMARK  236  A    between atoms: _612  and  _613
REMARK  237  A    between atoms: _612  and  _615
REMARK  238  A    between atoms: _615  and  _616
REMARK  239  A    between atoms: _618  and  _620
REMARK  240  A    between atoms: _620  and  _621
REMARK  241  A    between atoms: _620  and  _623
REMARK  242  A    between atoms: _627  and  _628
REMARK  243  A    between atoms: _633  and  _635
REMARK  244  A    between atoms: _635  and  _636
REMARK  245  A    between atoms: _635  and  _638
REMARK  246  A    between atoms: _638  and  _639
REMARK  247  A    between atoms: _644  and  _645
REMARK  248  A    between atoms: _647  and  _649
REMARK  249  A    between atoms: _649  and  _650
REMARK  250  A    between atoms: _649  and  _652
REMARK  251  A    between atoms: _652  and  _653
REMARK  252  A    between atoms: _653  and  _654
REMARK  253  A    between atoms: _654  and  _655
REMARK  254  A    between atoms: _664  and  _666
REMARK  255  A    between atoms: _666  and  _667
REMARK  256  A    between atoms: _666  and  _669
REMARK  257  A    between atoms: _669  and  _670
REMARK  258  A    between atoms: _675  and  _676
REMARK  259  A    between atoms: _678  and  _680
REMARK  260  A    between atoms: _680  and  _681
REMARK  261  A    between atoms: _680  and  _683
REMARK  262  A    between atoms: _683  and  _684
REMARK  263  A    between atoms: _690  and  _692
REMARK  264  A    between atoms: _692  and  _693
REMARK  265  A    between atoms: _692  and  _695
REMARK  266  A    between atoms: _695  and  _696
REMARK  267  A    between atoms: _698  and  _700
REMARK  268  A    between atoms: _700  and  _701
REMARK  269  A    between atoms: _700  and  _703
REMARK  270  A    between atoms: _703  and  _704
REMARK  271  A    between atoms: _710  and  _712
REMARK  272  A    between atoms: _712  and  _713
REMARK  273  A    between atoms: _712  and  _715
REMARK  274  A    between atoms: _715  and  _716
REMARK  275  A    between atoms: _716  and  _717
REMARK                            x       y       z     vdW  Elec       q    Type
REMARK                         _______ _______ _______ _____ _____    ______ ____
ROOT
ATOM      1  CA  ASN A   1      41.765  50.511  45.929  0.00  0.00    +0.154 C 
ENDROOT
BRANCH   1   2
ATOM      2  C   ASN A   1      41.878  48.992  46.049  0.00  0.00    +0.242 C 
ATOM      3  N   PRO A   2      40.743  48.257  46.142  0.00  0.00    -0.273 N 
ATOM      4  CA  PRO A   2      40.841  46.806  46.344  0.00  0.00    +0.140 C 
ATOM      5  CB  PRO A   2      39.381  46.352  46.310  0.00  0.00    +0.030 C 
ATOM      6  CG  PRO A   2      38.631  47.538  46.769  0.00  0.00    +0.024 C 
ATOM      7  CD  PRO A   2      39.332  48.694  46.129  0.00  0.00    +0.094 C 
ATOM      8  O   ASN A   1      42.994  48.491  46.112  0.00  0.00    -0.273 OA
BRANCH   4   9
ATOM      9  C   PRO A   2      41.691  46.063  45.306  0.00  0.00    +0.227 C 
ATOM     10  O   PRO A   2      42.359  45.086  45.657  0.00  0.00    -0.286 OA
ENDBRANCH   4   9
ENDBRANCH   1   2
BRANCH   1  11
ATOM     11  N   ASN A   1      43.103  51.012  46.177  0.00  0.00    -0.238 NA
ATOM     12  H   ASN A   1      43.906  50.512  45.745  0.00  0.00    +0.142 HD
ENDBRANCH   1  11
BRANCH   1  13
ATOM     13  CB  ASN A   1      41.202  51.008  44.581  0.00  0.00    +0.111 C 
BRANCH  13  14
ATOM     14  CG  ASN A   1      41.883  50.384  43.375  0.00  0.00    +0.221 C 
ATOM     15  OD1 ASN A   1      41.899  49.158  43.214  0.00  0.00    -0.275 OA
ATOM     16  ND2 ASN A   1      42.419  51.231  42.497  0.00  0.00    -0.329 N 
ATOM     17 HD21 ASN A   1      42.382  52.255  42.674  0.00  0.00    +0.145 HD
ATOM     18 HD22 ASN A   1      42.874  50.868  41.635  0.00  0.00    +0.145 HD
ENDBRANCH  13  14
ENDBRANCH   1  13
TORSDOF 5
REMARK  Name = ../refined-set-2016/2oc2/2oc2_pocket.pdb
REMARK  275 active torsions:
REMARK  status: ('A' for Active; 'I' for Inactive)
REMARK    1  A    between atoms: _1  and  _3
REMARK    2  A    between atoms: _3  and  _4
REMARK    3  A    between atoms: _3  and  _6
REMARK    4  A    between atoms: _6  and  _7
REMARK    5  A    between atoms: _12  and  _14
REMARK    6  A    between atoms: _14  and  _15
REMARK    7  A    between atoms: _14  and  _17
REMARK    8  A    between atoms: _17  and  _18
REMARK    9  A    between atoms: _23  and  _25
REMARK   10  A    between atoms: _25  and  _26
REMARK   11  A    between atoms: _25  and  _28
REMARK   12  A    between atoms: _28  and  _29
REMARK   13  A    between atoms: _29  and  _30
REMARK   14  A    between atoms: _33  and  _35
REMARK   15  A    between atoms: _35  and  _36
REMARK   16  A    between atoms: _35  and  _38
REMARK   17  A    between atoms: _38  and  _39
REMARK   18  A    between atoms: _44  and  _45
REMARK   19  A    between atoms: _47  and  _49
REMARK   20  A    between atoms: _49  and  _50
REMARK   21  A    between atoms: _49  and  _52
REMARK   22  A    between atoms: _52  and  _53
REMARK   23  A    between atoms: _53  and  _54
REMARK   24  A    between atoms: _57  and  _59
REMARK   25  A    between atoms: _59  and  _60
REMARK   26  A    between atoms: _59  and  _62
REMARK   27  A    between atoms: _62  and  _63
REMARK   28  A    between atoms: _68  and  _70
REMARK   29  A    between atoms: _70  and  _71
REMARK   30  A    between atoms: _70  and  _73
REMARK   31  A    between atoms: _73  and  _74
REMARK   32  A    between atoms: _84  and  _86
REMARK   33  A    between atoms: _86  and  _87
REMARK   34  A    between atoms: _86  and  _89
REMARK   35  A    between atoms: _89  and  _90
REMARK   36  A    between atoms: _90  and  _91
REMARK   37  A    between atoms: _96  and  _98
REMARK   38  A    between atoms: _98  and  _99
REMARK   39  A    between atoms: _98  and  _101
REMARK   40  A    between atoms: _101  and  _102
REMARK   41  A    between atoms: _105  and  _107
REMARK   42  A    between atoms: _107  and  _108
REMARK   43  A    between atoms: _107  and  _110
REMARK   44  A    between atoms: _113  and  _115
REMARK   45  A    between atoms: _115  and  _116
REMARK   46  A    between atoms: _115  and  _118
REMARK   47  A    between atoms: _118  and  _119
REMARK   48  A    between atoms: _119  and  _247
REMARK   49  A    between atoms: _120  and  _122
REMARK   50  A    between atoms: _122  and  _123
REMARK   51  A    between atoms: _122  and  _125
REMARK   52  A    between atoms: _125  and  _126
REMARK   53  A    between atoms: _131  and  _133
REMARK   54  A    between atoms: _133  and  _134
REMARK   55  A    between atoms: _137  and  _139
REMARK   56  A    between atoms: _139  and  _140
REMARK   57  A    between atoms: _139  and  _142
REMARK   58  A    between atoms: _142  and  _143
REMARK   59  A    between atoms: _145  and  _147
REMARK   60  A    between atoms: _147  and  _148
REMARK   61  A    between atoms: _151  and  _153
REMARK   62  A    between atoms: _153  and  _154
REMARK   63  A    between atoms: _153  and  _156
REMARK   64  A    between atoms: _156  and  _157
REMARK   65  A    between atoms: _167  and  _169
REMARK   66  A    between atoms: _169  and  _170
REMARK   67  A    between atoms: _169  and  _172
REMARK   68  A    between atoms: _172  and  _173
REMARK   69  A    between atoms: _176  and  _178
REMARK   70  A    between atoms: _178  and  _179
REMARK   71  A    between atoms: _178  and  _181
REMARK   72  A    between atoms: _181  and  _182
REMARK   73  A    between atoms: _187  and  _188
REMARK   74  A    between atoms: _190  and  _192
REMARK   75  A    between atoms: _192  and  _193
REMARK   76  A    between atoms: _192  and  _195
REMARK   77  A    between atoms: _195  and  _196
REMARK   78  A    between atoms: _196  and  _197
REMARK   79  A    between atoms: _197  and  _198
REMARK   80  A    between atoms: _207  and  _209
REMARK   81  A    between atoms: _209  and  _210
REMARK   82  A    between atoms: _209  and  _212
REMARK   83  A    between atoms: _212  and  _213
REMARK   84  A    between atoms: _216  and  _218
REMARK   85  A    between atoms: _218  and  _219
REMARK   86  A    between atoms: _218  and  _221
REMARK   87  A    between atoms: _221  and  _222
REMARK   88  A    between atoms: _222  and  _223
REMARK   89  A    between atoms: _223  and  _224
REMARK   90  A    between atoms: _224  and  _225
REMARK   91  A    between atoms: _229  and  _231
REMARK   92  A    between atoms: _231  and  _232
REMARK   93  A    between atoms: _231  and  _234
REMARK   94  A    between atoms: _234  and  _235
REMARK   95  A    between atoms: _235  and  _236
REMARK   96  A    between atoms: _241  and  _243
REMARK   97  A    between atoms: _243  and  _244
REMARK   98  A    between atoms: _243  and  _246
REMARK   99  A    between atoms: _246  and  _247
REMARK  100  A    between atoms: _248  and  _250
REMARK  101  A    between atoms: _250  and  _251
REMARK  102  A    between atoms: _250  and  _253
REMARK  103  A    between atoms: _253  and  _254
REMARK  104  A    between atoms: _254  and  _255
REMARK  105  A    between atoms: _258  and  _260
REMARK  106  A    between atoms: _260  and  _261
REMARK  107  A    between atoms: _260  and  _263
REMARK  108  A    between atoms: _263  and  _264
REMARK  109  A    between atoms: _267  and  _269
REMARK  110  A    between atoms: _269  and  _270
REMARK  111  A    between atoms: _269  and  _272
REMARK  112  A    between atoms: _275  and  _277
REMARK  113  A    between atoms: _277  and  _278
REMARK  114  A    between atoms: _277  and  _280
REMARK  115  A    between atoms: _283  and  _285
REMARK  116  A    between atoms: _285  and  _286
REMARK  117  A    between atoms: _289  and  _291
REMARK  118  A    between atoms: _291  and  _292
REMARK  119  A    between atoms: _291  and  _294
REMARK  120  A    between atoms: _294  and  _295
REMARK  121  A    between atoms: _300  and  _302
REMARK  122  A    between atoms: _313  and  _316
REMARK  123  A    between atoms: _316  and  _317
REMARK  124  A    between atoms: _317  and  _318
REMARK  125  A    between atoms: _323  and  _326
REMARK  126  A    between atoms: _326  and  _327
REMARK  127  A    between atoms: _327  and  _328
REMARK  128  A    between atoms: _337  and  _338
REMARK  129  A    between atoms: _346  and  _348
REMARK  130  A    between atoms: _348  and  _349
REMARK  131  A    between atoms: _348  and  _351
REMARK  132  A    between atoms: _351  and  _352
REMARK  133  A    between atoms: _355  and  _357
REMARK  134  A    between atoms: _357  and  _358
REMARK  135  A    between atoms: _357  and  _360
REMARK  136  A    between atoms: _360  and  _361
REMARK  137  A    between atoms: _366  and  _367
REMARK  138  A    between atoms: _369  and  _371
REMARK  139  A    between atoms: _371  and  _372
REMARK  140  A    between atoms: _371  and  _374
REMARK  141  A    between atoms: _374  and  _375
REMARK  142  A    between atoms: _381  and  _383
REMARK  143  A    between atoms: _383  and  _384
REMARK  144  A    between atoms: _383  and  _386
REMARK  145  A    between atoms: _386  and  _387
REMARK  146  A    between atoms: _392  and  _393
REMARK  147  A    between atoms: _395  and  _397
REMARK  148  A    between atoms: _397  and  _398
REMARK  149  A    between atoms: _397  and  _400
REMARK  150  A    between atoms: _400  and  _401
REMARK  151  A    between atoms: _401  and  _402
REMARK  152  A    between atoms: _402  and  _403
REMARK  153  A    between atoms: _412  and  _414
REMARK  154  A    between atoms: _414  and  _415
REMARK  155  A    between atoms: _414  and  _417
REMARK  156  A    between atoms: _417  and  _418
REMARK  157  A    between atoms: _418  and  _419
REMARK  158  A    between atoms: _422  and  _424
REMARK  159  A    between atoms: _424  and  _425
REMARK  160  A    between atoms: _427  and  _429
REMARK  161  A    between atoms: _429  and  _430
REMARK  162  A    between atoms: _429  and  _432
REMARK  163  A    between atoms: _432  and  _433
REMARK  164  A    between atoms: _439  and  _440
REMARK  165  A    between atoms: _445  and  _447
REMARK  166  A    between atoms: _447  and  _448
REMARK  167  A    between atoms: _447  and  _450
REMARK  168  A    between atoms: _450  and  _451
REMARK  169  A    between atoms: _457  and  _459
REMARK  170  A    between atoms: _459  and  _460
REMARK  171  A    between atoms: _459  and  _462
REMARK  172  A    between atoms: _462  and  _463
REMARK  173  A    between atoms: _468  and  _470
REMARK  174  A    between atoms: _470  and  _471
REMARK  175  A    between atoms: _470  and  _473
REMARK  176  A    between atoms: _473  and  _474
REMARK  177  A    between atoms: _474  and  _475
REMARK  178  A    between atoms: _475  and  _476
REMARK  179  A    between atoms: _476  and  ZN_722
REMARK  180  A    between atoms: _478  and  _480
REMARK  181  A    between atoms: _480  and  _481
REMARK  182  A    between atoms: _484  and  _486
REMARK  183  A    between atoms: _486  and  _487
REMARK  184  A    between atoms: _489  and  _491
REMARK  185  A    between atoms: _491  and  _492
REMARK  186  A    between atoms: _491  and  _494
REMARK  187  A    between atoms: _494  and  _495
REMARK  188  A    between atoms: _498  and  _500
REMARK  189  A    between atoms: _500  and  _501
REMARK  190  A    between atoms: _504  and  _506
REMARK  191  A    between atoms: _506  and  _507
REMARK  192  A    between atoms: _506  and  _509
REMARK  193  A    between atoms: _509  and  _510
REMARK  194  A    between atoms: _513  and  _515
REMARK  195  A    between atoms: _515  and  _516
REMARK  196  A    between atoms: _515  and  _518
REMARK  197  A    between atoms: _518  and  _519
REMARK  198  A    between atoms: _519  and  _520
REMARK  199  A    between atoms: _520  and  _521
REMARK  200  A    between atoms: _521  and  _522
REMARK  201  A    between atoms: _526  and  _528
REMARK  202  A    between atoms: _528  and  _529
REMARK  203  A    between atoms: _528  and  _531
REMARK  204  A    between atoms: _531  and  _532
REMARK  205  A    between atoms: _538  and  _540
REMARK  206  A    between atoms: _540  and  _541
REMARK  207  A    between atoms: _540  and  _543
REMARK  208  A    between atoms: _543  and  _544
REMARK  209  A    between atoms: _550  and  _552
REMARK  210  A    between atoms: _552  and  _553
REMARK  211  A    between atoms: _552  and  _555
REMARK  212  A    between atoms: _555  and  _556
REMARK  213  A    between atoms: _558  and  _560
REMARK  214  A    between atoms: _560  and  _561
REMARK  215  A    between atoms: _560  and  _563
REMARK  216  A    between atoms: _566  and  _568
REMARK  217  A    between atoms: _568  and  _569
REMARK  218  A    between atoms: _568  and  _571
REMARK  219  A    between atoms: _571  and  _572
REMARK  220  A    between atoms: _572  and  _573
REMARK  221  A    between atoms: _573  and  _574
REMARK  222  A    between atoms: _574  and  _575
REMARK  223  A    between atoms: _579  and  _581
REMARK  224  A    between atoms: _581  and  _582
REMARK  225  A    between atoms: _581  and  _584
REMARK  226  A    between atoms: _584  and  _585
REMARK  227  A    between atoms: _591  and  _593
REMARK  228  A    between atoms: _593  and  _594
REMARK  229  A    between atoms: _593  and  _596
REMARK  230  A    between atoms: _596  and  _597
REMARK  231  A    between atoms: _602  and  _604
REMARK  232  A    between atoms: _604  and  _605
REMARK  233  A    between atoms: _604  and  _607
REMARK  234  A    between atoms: _607  and  _608
REMARK  235  A    between atoms: _610  and  _612
REMARK  236  A    between atoms: _612  and  _613
REMARK  237  A    between atoms: _612  and  _615
REMARK  238  A    between atoms: _615  and  _616
REMARK  239  A    between atoms: _618  and  _620
REMARK  240  A    between atoms: _620  and  _621
REMARK  241  A    between atoms: _620  and  _623
REMARK  242  A    between atoms: _627  and  _628
REMARK  243  A    between atoms: _633  and  _635
REMARK  244  A    between atoms: _635  and  _636
REMARK  245  A    between atoms: _635  and  _638
REMARK  246  A    between atoms: _638  and  _639
REMARK  247  A    between atoms: _644  and  _645
REMARK  248  A    between atoms: _647  and  _649
REMARK  249  A    between atoms: _649  and  _650
REMARK  250  A    between atoms: _649  and  _652
REMARK  251  A    between atoms: _652  and  _653
REMARK  252  A    between atoms: _653  and  _654
REMARK  253  A    between atoms: _654  and  _655
REMARK  254  A    between atoms: _664  and  _666
REMARK  255  A    between atoms: _666  and  _667
REMARK  256  A    between atoms: _666  and  _669
REMARK  257  A    between atoms: _669  and  _670
REMARK  258  A    between atoms: _675  and  _676
REMARK  259  A    between atoms: _678  and  _680
REMARK  260  A    between atoms: _680  and  _681
REMARK  261  A    between atoms: _680  and  _683
REMARK  262  A    between atoms: _683  and  _684
REMARK  263  A    between atoms: _690  and  _692
REMARK  264  A    between atoms: _692  and  _693
REMARK  265  A    between atoms: _692  and  _695
REMARK  266  A    between atoms: _695  and  _696
REMARK  267  A    between atoms: _698  and  _700
REMARK  268  A    between atoms: _700  and  _701
REMARK  269  A    between atoms: _700  and  _703
REMARK  270  A    between atoms: _703  and  _704
REMARK  271  A    between atoms: _710  and  _712
REMARK  272  A    between atoms: _712  and  _713
REMARK  273  A    between atoms: _712  and  _715
REMARK  274  A    between atoms: _715  and  _716
REMARK  275  A    between atoms: _716  and  _717
REMARK                            x       y       z     vdW  Elec       q    Type
REMARK                         _______ _______ _______ _____ _____    ______ ____
ROOT
ATOM      1  C   GLY A   1      51.768  38.784  43.219  0.00  0.00    +0.240 C 
ATOM      2  O   GLY A   1      52.678  38.049  42.836  0.00  0.00    -0.274 OA
ATOM      3  N   ASP A   2      50.728  39.122  42.461  0.00  0.00    -0.298 N 
ATOM      4  H   ASP A   2      49.946  39.653  42.896  0.00  0.00    +0.150 HD
ENDROOT
BRANCH   1   5
ATOM      5  CA  GLY A   1      51.791  39.359  44.623  0.00  0.00    +0.169 C 
BRANCH   5   6
ATOM      6  N   GLY A   1      51.195  40.688  44.710  0.00  0.00    -0.236 NA
ATOM      7  H   GLY A   1      50.269  40.796  45.170  0.00  0.00    +0.142 HD
ENDBRANCH   5   6
ENDBRANCH   1   5
BRANCH   3   8
ATOM      8  CA  ASP A   2      50.638  38.777  41.037  0.00  0.00    +0.148 C 
BRANCH   8   9
ATOM      9  C   ASP A   2      51.734  39.400  40.194  0.00  0.00    +0.227 C 
ATOM     10  O   ASP A   2      52.144  38.807  39.195  0.00  0.00    -0.286 OA
ENDBRANCH   8   9
BRANCH   8  11
ATOM     11  CB  ASP A   2      49.279  39.175  40.454  0.00  0.00    +0.142 C 
BRANCH  11  12
ATOM     12  CG  ASP A   2      48.145  38.316  40.973  0.00  0.00    +0.367 C 
ATOM     13  OD2 ASP A   2      48.296  37.720  42.057  0.00  0.00    -0.246 OA
ATOM     14  OD1 ASP A   2      47.097  38.243  40.299  0.00  0.00    -0.246 OA
ENDBRANCH  11  12
ENDBRANCH   8  11
ENDBRANCH   3   8
TORSDOF 6
REMARK  Name = ../refined-set-2016/2oc2/2oc2_pocket.pdb
REMARK  275 active torsions:
REMARK  status: ('A' for Active; 'I' for Inactive)
REMARK    1  A    between atoms: _1  and  _3
REMARK    2  A    between atoms: _3  and  _4
REMARK    3  A    between atoms: _3  and  _6
REMARK    4  A    between atoms: _6  and  _7
REMARK    5  A    between atoms: _12  and  _14
REMARK    6  A    between atoms: _14  and  _15
REMARK    7  A    between atoms: _14  and  _17
REMARK    8  A    between atoms: _17  and  _18
REMARK    9  A    between atoms: _23  and  _25
REMARK   10  A    between atoms: _25  and  _26
REMARK   11  A    between atoms: _25  and  _28
REMARK   12  A    between atoms: _28  and  _29
REMARK   13  A    between atoms: _29  and  _30
REMARK   14  A    between atoms: _33  and  _35
REMARK   15  A    between atoms: _35  and  _36
REMARK   16  A    between atoms: _35  and  _38
REMARK   17  A    between atoms: _38  and  _39
REMARK   18  A    between atoms: _44  and  _45
REMARK   19  A    between atoms: _47  and  _49
REMARK   20  A    between atoms: _49  and  _50
REMARK   21  A    between atoms: _49  and  _52
REMARK   22  A    between atoms: _52  and  _53
REMARK   23  A    between atoms: _53  and  _54
REMARK   24  A    between atoms: _57  and  _59
REMARK   25  A    between atoms: _59  and  _60
REMARK   26  A    between atoms: _59  and  _62
REMARK   27  A    between atoms: _62  and  _63
REMARK   28  A    between atoms: _68  and  _70
REMARK   29  A    between atoms: _70  and  _71
REMARK   30  A    between atoms: _70  and  _73
REMARK   31  A    between atoms: _73  and  _74
REMARK   32  A    between atoms: _84  and  _86
REMARK   33  A    between atoms: _86  and  _87
REMARK   34  A    between atoms: _86  and  _89
REMARK   35  A    between atoms: _89  and  _90
REMARK   36  A    between atoms: _90  and  _91
REMARK   37  A    between atoms: _96  and  _98
REMARK   38  A    between atoms: _98  and  _99
REMARK   39  A    between atoms: _98  and  _101
REMARK   40  A    between atoms: _101  and  _102
REMARK   41  A    between atoms: _105  and  _107
REMARK   42  A    between atoms: _107  and  _108
REMARK   43  A    between atoms: _107  and  _110
REMARK   44  A    between atoms: _113  and  _115
REMARK   45  A    between atoms: _115  and  _116
REMARK   46  A    between atoms: _115  and  _118
REMARK   47  A    between atoms: _118  and  _119
REMARK   48  A    between atoms: _119  and  _247
REMARK   49  A    between atoms: _120  and  _122
REMARK   50  A    between atoms: _122  and  _123
REMARK   51  A    between atoms: _122  and  _125
REMARK   52  A    between atoms: _125  and  _126
REMARK   53  A    between atoms: _131  and  _133
REMARK   54  A    between atoms: _133  and  _134
REMARK   55  A    between atoms: _137  and  _139
REMARK   56  A    between atoms: _139  and  _140
REMARK   57  A    between atoms: _139  and  _142
REMARK   58  A    between atoms: _142  and  _143
REMARK   59  A    between atoms: _145  and  _147
REMARK   60  A    between atoms: _147  and  _148
REMARK   61  A    between atoms: _151  and  _153
REMARK   62  A    between atoms: _153  and  _154
REMARK   63  A    between atoms: _153  and  _156
REMARK   64  A    between atoms: _156  and  _157
REMARK   65  A    between atoms: _167  and  _169
REMARK   66  A    between atoms: _169  and  _170
REMARK   67  A    between atoms: _169  and  _172
REMARK   68  A    between atoms: _172  and  _173
REMARK   69  A    between atoms: _176  and  _178
REMARK   70  A    between atoms: _178  and  _179
REMARK   71  A    between atoms: _178  and  _181
REMARK   72  A    between atoms: _181  and  _182
REMARK   73  A    between atoms: _187  and  _188
REMARK   74  A    between atoms: _190  and  _192
REMARK   75  A    between atoms: _192  and  _193
REMARK   76  A    between atoms: _192  and  _195
REMARK   77  A    between atoms: _195  and  _196
REMARK   78  A    between atoms: _196  and  _197
REMARK   79  A    between atoms: _197  and  _198
REMARK   80  A    between atoms: _207  and  _209
REMARK   81  A    between atoms: _209  and  _210
REMARK   82  A    between atoms: _209  and  _212
REMARK   83  A    between atoms: _212  and  _213
REMARK   84  A    between atoms: _216  and  _218
REMARK   85  A    between atoms: _218  and  _219
REMARK   86  A    between atoms: _218  and  _221
REMARK   87  A    between atoms: _221  and  _222
REMARK   88  A    between atoms: _222  and  _223
REMARK   89  A    between atoms: _223  and  _224
REMARK   90  A    between atoms: _224  and  _225
REMARK   91  A    between atoms: _229  and  _231
REMARK   92  A    between atoms: _231  and  _232
REMARK   93  A    between atoms: _231  and  _234
REMARK   94  A    between atoms: _234  and  _235
REMARK   95  A    between atoms: _235  and  _236
REMARK   96  A    between atoms: _241  and  _243
REMARK   97  A    between atoms: _243  and  _244
REMARK   98  A    between atoms: _243  and  _246
REMARK   99  A    between atoms: _246  and  _247
REMARK  100  A    between atoms: _248  and  _250
REMARK  101  A    between atoms: _250  and  _251
REMARK  102  A    between atoms: _250  and  _253
REMARK  103  A    between atoms: _253  and  _254
REMARK  104  A    between atoms: _254  and  _255
REMARK  105  A    between atoms: _258  and  _260
REMARK  106  A    between atoms: _260  and  _261
REMARK  107  A    between atoms: _260  and  _263
REMARK  108  A    between atoms: _263  and  _264
REMARK  109  A    between atoms: _267  and  _269
REMARK  110  A    between atoms: _269  and  _270
REMARK  111  A    between atoms: _269  and  _272
REMARK  112  A    between atoms: _275  and  _277
REMARK  113  A    between atoms: _277  and  _278
REMARK  114  A    between atoms: _277  and  _280
REMARK  115  A    between atoms: _283  and  _285
REMARK  116  A    between atoms: _285  and  _286
REMARK  117  A    between atoms: _289  and  _291
REMARK  118  A    between atoms: _291  and  _292
REMARK  119  A    between atoms: _291  and  _294
REMARK  120  A    between atoms: _294  and  _295
REMARK  121  A    between atoms: _300  and  _302
REMARK  122  A    between atoms: _313  and  _316
REMARK  123  A    between atoms: _316  and  _317
REMARK  124  A    between atoms: _317  and  _318
REMARK  125  A    between atoms: _323  and  _326
REMARK  126  A    between atoms: _326  and  _327
REMARK  127  A    between atoms: _327  and  _328
REMARK  128  A    between atoms: _337  and  _338
REMARK  129  A    between atoms: _346  and  _348
REMARK  130  A    between atoms: _348  and  _349
REMARK  131  A    between atoms: _348  and  _351
REMARK  132  A    between atoms: _351  and  _352
REMARK  133  A    between atoms: _355  and  _357
REMARK  134  A    between atoms: _357  and  _358
REMARK  135  A    between atoms: _357  and  _360
REMARK  136  A    between atoms: _360  and  _361
REMARK  137  A    between atoms: _366  and  _367
REMARK  138  A    between atoms: _369  and  _371
REMARK  139  A    between atoms: _371  and  _372
REMARK  140  A    between atoms: _371  and  _374
REMARK  141  A    between atoms: _374  and  _375
REMARK  142  A    between atoms: _381  and  _383
REMARK  143  A    between atoms: _383  and  _384
REMARK  144  A    between atoms: _383  and  _386
REMARK  145  A    between atoms: _386  and  _387
REMARK  146  A    between atoms: _392  and  _393
REMARK  147  A    between atoms: _395  and  _397
REMARK  148  A    between atoms: _397  and  _398
REMARK  149  A    between atoms: _397  and  _400
REMARK  150  A    between atoms: _400  and  _401
REMARK  151  A    between atoms: _401  and  _402
REMARK  152  A    between atoms: _402  and  _403
REMARK  153  A    between atoms: _412  and  _414
REMARK  154  A    between atoms: _414  and  _415
REMARK  155  A    between atoms: _414  and  _417
REMARK  156  A    between atoms: _417  and  _418
REMARK  157  A    between atoms: _418  and  _419
REMARK  158  A    between atoms: _422  and  _424
REMARK  159  A    between atoms: _424  and  _425
REMARK  160  A    between atoms: _427  and  _429
REMARK  161  A    between atoms: _429  and  _430
REMARK  162  A    between atoms: _429  and  _432
REMARK  163  A    between atoms: _432  and  _433
REMARK  164  A    between atoms: _439  and  _440
REMARK  165  A    between atoms: _445  and  _447
REMARK  166  A    between atoms: _447  and  _448
REMARK  167  A    between atoms: _447  and  _450
REMARK  168  A    between atoms: _450  and  _451
REMARK  169  A    between atoms: _457  and  _459
REMARK  170  A    between atoms: _459  and  _460
REMARK  171  A    between atoms: _459  and  _462
REMARK  172  A    between atoms: _462  and  _463
REMARK  173  A    between atoms: _468  and  _470
REMARK  174  A    between atoms: _470  and  _471
REMARK  175  A    between atoms: _470  and  _473
REMARK  176  A    between atoms: _473  and  _474
REMARK  177  A    between atoms: _474  and  _475
REMARK  178  A    between atoms: _475  and  _476
REMARK  179  A    between atoms: _476  and  ZN_722
REMARK  180  A    between atoms: _478  and  _480
REMARK  181  A    between atoms: _480  and  _481
REMARK  182  A    between atoms: _484  and  _486
REMARK  183  A    between atoms: _486  and  _487
REMARK  184  A    between atoms: _489  and  _491
REMARK  185  A    between atoms: _491  and  _492
REMARK  186  A    between atoms: _491  and  _494
REMARK  187  A    between atoms: _494  and  _495
REMARK  188  A    between atoms: _498  and  _500
REMARK  189  A    between atoms: _500  and  _501
REMARK  190  A    between atoms: _504  and  _506
REMARK  191  A    between atoms: _506  and  _507
REMARK  192  A    between atoms: _506  and  _509
REMARK  193  A    between atoms: _509  and  _510
REMARK  194  A    between atoms: _513  and  _515
REMARK  195  A    between atoms: _515  and  _516
REMARK  196  A    between atoms: _515  and  _518
REMARK  197  A    between atoms: _518  and  _519
REMARK  198  A    between atoms: _519  and  _520
REMARK  199  A    between atoms: _520  and  _521
REMARK  200  A    between atoms: _521  and  _522
REMARK  201  A    between atoms: _526  and  _528
REMARK  202  A    between atoms: _528  and  _529
REMARK  203  A    between atoms: _528  and  _531
REMARK  204  A    between atoms: _531  and  _532
REMARK  205  A    between atoms: _538  and  _540
REMARK  206  A    between atoms: _540  and  _541
REMARK  207  A    between atoms: _540  and  _543
REMARK  208  A    between atoms: _543  and  _544
REMARK  209  A    between atoms: _550  and  _552
REMARK  210  A    between atoms: _552  and  _553
REMARK  211  A    between atoms: _552  and  _555
REMARK  212  A    between atoms: _555  and  _556
REMARK  213  A    between atoms: _558  and  _560
REMARK  214  A    between atoms: _560  and  _561
REMARK  215  A    between atoms: _560  and  _563
REMARK  216  A    between atoms: _566  and  _568
REMARK  217  A    between atoms: _568  and  _569
REMARK  218  A    between atoms: _568  and  _571
REMARK  219  A    between atoms: _571  and  _572
REMARK  220  A    between atoms: _572  and  _573
REMARK  221  A    between atoms: _573  and  _574
REMARK  222  A    between atoms: _574  and  _575
REMARK  223  A    between atoms: _579  and  _581
REMARK  224  A    between atoms: _581  and  _582
REMARK  225  A    between atoms: _581  and  _584
REMARK  226  A    between atoms: _584  and  _585
REMARK  227  A    between atoms: _591  and  _593
REMARK  228  A    between atoms: _593  and  _594
REMARK  229  A    between atoms: _593  and  _596
REMARK  230  A    between atoms: _596  and  _597
REMARK  231  A    between atoms: _602  and  _604
REMARK  232  A    between atoms: _604  and  _605
REMARK  233  A    between atoms: _604  and  _607
REMARK  234  A    between atoms: _607  and  _608
REMARK  235  A    between atoms: _610  and  _612
REMARK  236  A    between atoms: _612  and  _613
REMARK  237  A    between atoms: _612  and  _615
REMARK  238  A    between atoms: _615  and  _616
REMARK  239  A    between atoms: _618  and  _620
REMARK  240  A    between atoms: _620  and  _621
REMARK  241  A    between atoms: _620  and  _623
REMARK  242  A    between atoms: _627  and  _628
REMARK  243  A    between atoms: _633  and  _635
REMARK  244  A    between atoms: _635  and  _636
REMARK  245  A    between atoms: _635  and  _638
REMARK  246  A    between atoms: _638  and  _639
REMARK  247  A    between atoms: _644  and  _645
REMARK  248  A    between atoms: _647  and  _649
REMARK  249  A    between atoms: _649  and  _650
REMARK  250  A    between atoms: _649  and  _652
REMARK  251  A    between atoms: _652  and  _653
REMARK  252  A    between atoms: _653  and  _654
REMARK  253  A    between atoms: _654  and  _655
REMARK  254  A    between atoms: _664  and  _666
REMARK  255  A    between atoms: _666  and  _667
REMARK  256  A    between atoms: _666  and  _669
REMARK  257  A    between atoms: _669  and  _670
REMARK  258  A    between atoms: _675  and  _676
REMARK  259  A    between atoms: _678  and  _680
REMARK  260  A    between atoms: _680  and  _681
REMARK  261  A    between atoms: _680  and  _683
REMARK  262  A    between atoms: _683  and  _684
REMARK  263  A    between atoms: _690  and  _692
REMARK  264  A    between atoms: _692  and  _693
REMARK  265  A    between atoms: _692  and  _695
REMARK  266  A    between atoms: _695  and  _696
REMARK  267  A    between atoms: _698  and  _700
REMARK  268  A    between atoms: _700  and  _701
REMARK  269  A    between atoms: _700  and  _703
REMARK  270  A    between atoms: _703  and  _704
REMARK  271  A    between atoms: _710  and  _712
REMARK  272  A    between atoms: _712  and  _713
REMARK  273  A    between atoms: _712  and  _715
REMARK  274  A    between atoms: _715  and  _716
REMARK  275  A    between atoms: _716  and  _717
REMARK                            x       y       z     vdW  Elec       q    Type
REMARK                         _______ _______ _______ _____ _____    ______ ____
ROOT
ATOM      1  CA  ALA A   1      54.539  36.055  40.207  0.00  0.00    +0.133 C 
ATOM      2  CB  ALA A   1      53.143  35.610  40.637  0.00  0.00    +0.027 C 
ENDROOT
BRANCH   1   3
ATOM      3  N   ALA A   1      54.879  37.329  40.849  0.00  0.00    -0.239 NA
ATOM      4  H   ALA A   1      54.175  37.766  41.477  0.00  0.00    +0.142 HD
ENDBRANCH   1   3
BRANCH   1   5
ATOM      5  C   ALA A   1      54.673  36.037  38.664  0.00  0.00    +0.224 C 
ATOM      6  O   ALA A   1      54.944  34.974  38.080  0.00  0.00    -0.287 OA
ENDBRANCH   1   5
TORSDOF 2
REMARK  Name = ../refined-set-2016/2oc2/2oc2_pocket.pdb
REMARK  275 active torsions:
REMARK  status: ('A' for Active; 'I' for Inactive)
REMARK    1  A    between atoms: _1  and  _3
REMARK    2  A    between atoms: _3  and  _4
REMARK    3  A    between atoms: _3  and  _6
REMARK    4  A    between atoms: _6  and  _7
REMARK    5  A    between atoms: _12  and  _14
REMARK    6  A    between atoms: _14  and  _15
REMARK    7  A    between atoms: _14  and  _17
REMARK    8  A    between atoms: _17  and  _18
REMARK    9  A    between atoms: _23  and  _25
REMARK   10  A    between atoms: _25  and  _26
REMARK   11  A    between atoms: _25  and  _28
REMARK   12  A    between atoms: _28  and  _29
REMARK   13  A    between atoms: _29  and  _30
REMARK   14  A    between atoms: _33  and  _35
REMARK   15  A    between atoms: _35  and  _36
REMARK   16  A    between atoms: _35  and  _38
REMARK   17  A    between atoms: _38  and  _39
REMARK   18  A    between atoms: _44  and  _45
REMARK   19  A    between atoms: _47  and  _49
REMARK   20  A    between atoms: _49  and  _50
REMARK   21  A    between atoms: _49  and  _52
REMARK   22  A    between atoms: _52  and  _53
REMARK   23  A    between atoms: _53  and  _54
REMARK   24  A    between atoms: _57  and  _59
REMARK   25  A    between atoms: _59  and  _60
REMARK   26  A    between atoms: _59  and  _62
REMARK   27  A    between atoms: _62  and  _63
REMARK   28  A    between atoms: _68  and  _70
REMARK   29  A    between atoms: _70  and  _71
REMARK   30  A    between atoms: _70  and  _73
REMARK   31  A    between atoms: _73  and  _74
REMARK   32  A    between atoms: _84  and  _86
REMARK   33  A    between atoms: _86  and  _87
REMARK   34  A    between atoms: _86  and  _89
REMARK   35  A    between atoms: _89  and  _90
REMARK   36  A    between atoms: _90  and  _91
REMARK   37  A    between atoms: _96  and  _98
REMARK   38  A    between atoms: _98  and  _99
REMARK   39  A    between atoms: _98  and  _101
REMARK   40  A    between atoms: _101  and  _102
REMARK   41  A    between atoms: _105  and  _107
REMARK   42  A    between atoms: _107  and  _108
REMARK   43  A    between atoms: _107  and  _110
REMARK   44  A    between atoms: _113  and  _115
REMARK   45  A    between atoms: _115  and  _116
REMARK   46  A    between atoms: _115  and  _118
REMARK   47  A    between atoms: _118  and  _119
REMARK   48  A    between atoms: _119  and  _247
REMARK   49  A    between atoms: _120  and  _122
REMARK   50  A    between atoms: _122  and  _123
REMARK   51  A    between atoms: _122  and  _125
REMARK   52  A    between atoms: _125  and  _126
REMARK   53  A    between atoms: _131  and  _133
REMARK   54  A    between atoms: _133  and  _134
REMARK   55  A    between atoms: _137  and  _139
REMARK   56  A    between atoms: _139  and  _140
REMARK   57  A    between atoms: _139  and  _142
REMARK   58  A    between atoms: _142  and  _143
REMARK   59  A    between atoms: _145  and  _147
REMARK   60  A    between atoms: _147  and  _148
REMARK   61  A    between atoms: _151  and  _153
REMARK   62  A    between atoms: _153  and  _154
REMARK   63  A    between atoms: _153  and  _156
REMARK   64  A    between atoms: _156  and  _157
REMARK   65  A    between atoms: _167  and  _169
REMARK   66  A    between atoms: _169  and  _170
REMARK   67  A    between atoms: _169  and  _172
REMARK   68  A    between atoms: _172  and  _173
REMARK   69  A    between atoms: _176  and  _178
REMARK   70  A    between atoms: _178  and  _179
REMARK   71  A    between atoms: _178  and  _181
REMARK   72  A    between atoms: _181  and  _182
REMARK   73  A    between atoms: _187  and  _188
REMARK   74  A    between atoms: _190  and  _192
REMARK   75  A    between atoms: _192  and  _193
REMARK   76  A    between atoms: _192  and  _195
REMARK   77  A    between atoms: _195  and  _196
REMARK   78  A    between atoms: _196  and  _197
REMARK   79  A    between atoms: _197  and  _198
REMARK   80  A    between atoms: _207  and  _209
REMARK   81  A    between atoms: _209  and  _210
REMARK   82  A    between atoms: _209  and  _212
REMARK   83  A    between atoms: _212  and  _213
REMARK   84  A    between atoms: _216  and  _218
REMARK   85  A    between atoms: _218  and  _219
REMARK   86  A    between atoms: _218  and  _221
REMARK   87  A    between atoms: _221  and  _222
REMARK   88  A    between atoms: _222  and  _223
REMARK   89  A    between atoms: _223  and  _224
REMARK   90  A    between atoms: _224  and  _225
REMARK   91  A    between atoms: _229  and  _231
REMARK   92  A    between atoms: _231  and  _232
REMARK   93  A    between atoms: _231  and  _234
REMARK   94  A    between atoms: _234  and  _235
REMARK   95  A    between atoms: _235  and  _236
REMARK   96  A    between atoms: _241  and  _243
REMARK   97  A    between atoms: _243  and  _244
REMARK   98  A    between atoms: _243  and  _246
REMARK   99  A    between atoms: _246  and  _247
REMARK  100  A    between atoms: _248  and  _250
REMARK  101  A    between atoms: _250  and  _251
REMARK  102  A    between atoms: _250  and  _253
REMARK  103  A    between atoms: _253  and  _254
REMARK  104  A    between atoms: _254  and  _255
REMARK  105  A    between atoms: _258  and  _260
REMARK  106  A    between atoms: _260  and  _261
REMARK  107  A    between atoms: _260  and  _263
REMARK  108  A    between atoms: _263  and  _264
REMARK  109  A    between atoms: _267  and  _269
REMARK  110  A    between atoms: _269  and  _270
REMARK  111  A    between atoms: _269  and  _272
REMARK  112  A    between atoms: _275  and  _277
REMARK  113  A    between atoms: _277  and  _278
REMARK  114  A    between atoms: _277  and  _280
REMARK  115  A    between atoms: _283  and  _285
REMARK  116  A    between atoms: _285  and  _286
REMARK  117  A    between atoms: _289  and  _291
REMARK  118  A    between atoms: _291  and  _292
REMARK  119  A    between atoms: _291  and  _294
REMARK  120  A    between atoms: _294  and  _295
REMARK  121  A    between atoms: _300  and  _302
REMARK  122  A    between atoms: _313  and  _316
REMARK  123  A    between atoms: _316  and  _317
REMARK  124  A    between atoms: _317  and  _318
REMARK  125  A    between atoms: _323  and  _326
REMARK  126  A    between atoms: _326  and  _327
REMARK  127  A    between atoms: _327  and  _328
REMARK  128  A    between atoms: _337  and  _338
REMARK  129  A    between atoms: _346  and  _348
REMARK  130  A    between atoms: _348  and  _349
REMARK  131  A    between atoms: _348  and  _351
REMARK  132  A    between atoms: _351  and  _352
REMARK  133  A    between atoms: _355  and  _357
REMARK  134  A    between atoms: _357  and  _358
REMARK  135  A    between atoms: _357  and  _360
REMARK  136  A    between atoms: _360  and  _361
REMARK  137  A    between atoms: _366  and  _367
REMARK  138  A    between atoms: _369  and  _371
REMARK  139  A    between atoms: _371  and  _372
REMARK  140  A    between atoms: _371  and  _374
REMARK  141  A    between atoms: _374  and  _375
REMARK  142  A    between atoms: _381  and  _383
REMARK  143  A    between atoms: _383  and  _384
REMARK  144  A    between atoms: _383  and  _386
REMARK  145  A    between atoms: _386  and  _387
REMARK  146  A    between atoms: _392  and  _393
REMARK  147  A    between atoms: _395  and  _397
REMARK  148  A    between atoms: _397  and  _398
REMARK  149  A    between atoms: _397  and  _400
REMARK  150  A    between atoms: _400  and  _401
REMARK  151  A    between atoms: _401  and  _402
REMARK  152  A    between atoms: _402  and  _403
REMARK  153  A    between atoms: _412  and  _414
REMARK  154  A    between atoms: _414  and  _415
REMARK  155  A    between atoms: _414  and  _417
REMARK  156  A    between atoms: _417  and  _418
REMARK  157  A    between atoms: _418  and  _419
REMARK  158  A    between atoms: _422  and  _424
REMARK  159  A    between atoms: _424  and  _425
REMARK  160  A    between atoms: _427  and  _429
REMARK  161  A    between atoms: _429  and  _430
REMARK  162  A    between atoms: _429  and  _432
REMARK  163  A    between atoms: _432  and  _433
REMARK  164  A    between atoms: _439  and  _440
REMARK  165  A    between atoms: _445  and  _447
REMARK  166  A    between atoms: _447  and  _448
REMARK  167  A    between atoms: _447  and  _450
REMARK  168  A    between atoms: _450  and  _451
REMARK  169  A    between atoms: _457  and  _459
REMARK  170  A    between atoms: _459  and  _460
REMARK  171  A    between atoms: _459  and  _462
REMARK  172  A    between atoms: _462  and  _463
REMARK  173  A    between atoms: _468  and  _470
REMARK  174  A    between atoms: _470  and  _471
REMARK  175  A    between atoms: _470  and  _473
REMARK  176  A    between atoms: _473  and  _474
REMARK  177  A    between atoms: _474  and  _475
REMARK  178  A    between atoms: _475  and  _476
REMARK  179  A    between atoms: _476  and  ZN_722
REMARK  180  A    between atoms: _478  and  _480
REMARK  181  A    between atoms: _480  and  _481
REMARK  182  A    between atoms: _484  and  _486
REMARK  183  A    between atoms: _486  and  _487
REMARK  184  A    between atoms: _489  and  _491
REMARK  185  A    between atoms: _491  and  _492
REMARK  186  A    between atoms: _491  and  _494
REMARK  187  A    between atoms: _494  and  _495
REMARK  188  A    between atoms: _498  and  _500
REMARK  189  A    between atoms: _500  and  _501
REMARK  190  A    between atoms: _504  and  _506
REMARK  191  A    between atoms: _506  and  _507
REMARK  192  A    between atoms: _506  and  _509
REMARK  193  A    between atoms: _509  and  _510
REMARK  194  A    between atoms: _513  and  _515
REMARK  195  A    between atoms: _515  and  _516
REMARK  196  A    between atoms: _515  and  _518
REMARK  197  A    between atoms: _518  and  _519
REMARK  198  A    between atoms: _519  and  _520
REMARK  199  A    between atoms: _520  and  _521
REMARK  200  A    between atoms: _521  and  _522
REMARK  201  A    between atoms: _526  and  _528
REMARK  202  A    between atoms: _528  and  _529
REMARK  203  A    between atoms: _528  and  _531
REMARK  204  A    between atoms: _531  and  _532
REMARK  205  A    between atoms: _538  and  _540
REMARK  206  A    between atoms: _540  and  _541
REMARK  207  A    between atoms: _540  and  _543
REMARK  208  A    between atoms: _543  and  _544
REMARK  209  A    between atoms: _550  and  _552
REMARK  210  A    between atoms: _552  and  _553
REMARK  211  A    between atoms: _552  and  _555
REMARK  212  A    between atoms: _555  and  _556
REMARK  213  A    between atoms: _558  and  _560
REMARK  214  A    between atoms: _560  and  _561
REMARK  215  A    between atoms: _560  and  _563
REMARK  216  A    between atoms: _566  and  _568
REMARK  217  A    between atoms: _568  and  _569
REMARK  218  A    between atoms: _568  and  _571
REMARK  219  A    between atoms: _571  and  _572
REMARK  220  A    between atoms: _572  and  _573
REMARK  221  A    between atoms: _573  and  _574
REMARK  222  A    between atoms: _574  and  _575
REMARK  223  A    between atoms: _579  and  _581
REMARK  224  A    between atoms: _581  and  _582
REMARK  225  A    between atoms: _581  and  _584
REMARK  226  A    between atoms: _584  and  _585
REMARK  227  A    between atoms: _591  and  _593
REMARK  228  A    between atoms: _593  and  _594
REMARK  229  A    between atoms: _593  and  _596
REMARK  230  A    between atoms: _596  and  _597
REMARK  231  A    between atoms: _602  and  _604
REMARK  232  A    between atoms: _604  and  _605
REMARK  233  A    between atoms: _604  and  _607
REMARK  234  A    between atoms: _607  and  _608
REMARK  235  A    between atoms: _610  and  _612
REMARK  236  A    between atoms: _612  and  _613
REMARK  237  A    between atoms: _612  and  _615
REMARK  238  A    between atoms: _615  and  _616
REMARK  239  A    between atoms: _618  and  _620
REMARK  240  A    between atoms: _620  and  _621
REMARK  241  A    between atoms: _620  and  _623
REMARK  242  A    between atoms: _627  and  _628
REMARK  243  A    between atoms: _633  and  _635
REMARK  244  A    between atoms: _635  and  _636
REMARK  245  A    between atoms: _635  and  _638
REMARK  246  A    between atoms: _638  and  _639
REMARK  247  A    between atoms: _644  and  _645
REMARK  248  A    between atoms: _647  and  _649
REMARK  249  A    between atoms: _649  and  _650
REMARK  250  A    between atoms: _649  and  _652
REMARK  251  A    between atoms: _652  and  _653
REMARK  252  A    between atoms: _653  and  _654
REMARK  253  A    between atoms: _654  and  _655
REMARK  254  A    between atoms: _664  and  _666
REMARK  255  A    between atoms: _666  and  _667
REMARK  256  A    between atoms: _666  and  _669
REMARK  257  A    between atoms: _669  and  _670
REMARK  258  A    between atoms: _675  and  _676
REMARK  259  A    between atoms: _678  and  _680
REMARK  260  A    between atoms: _680  and  _681
REMARK  261  A    between atoms: _680  and  _683
REMARK  262  A    between atoms: _683  and  _684
REMARK  263  A    between atoms: _690  and  _692
REMARK  264  A    between atoms: _692  and  _693
REMARK  265  A    between atoms: _692  and  _695
REMARK  266  A    between atoms: _695  and  _696
REMARK  267  A    between atoms: _698  and  _700
REMARK  268  A    between atoms: _700  and  _701
REMARK  269  A    between atoms: _700  and  _703
REMARK  270  A    between atoms: _703  and  _704
REMARK  271  A    between atoms: _710  and  _712
REMARK  272  A    between atoms: _712  and  _713
REMARK  273  A    between atoms: _712  and  _715
REMARK  274  A    between atoms: _715  and  _716
REMARK  275  A    between atoms: _716  and  _717
REMARK                            x       y       z     vdW  Elec       q    Type
REMARK                         _______ _______ _______ _____ _____    ______ ____
ROOT
ATOM      1  C   ASP A   1      45.111  33.722  32.613  0.00  0.00    +0.239 C 
ATOM      2  O   ASP A   1      44.066  33.959  33.224  0.00  0.00    -0.274 OA
ATOM      3  N   LYS A   2      45.802  34.663  31.970  0.00  0.00    -0.298 N 
ATOM      4  H   LYS A   2      46.528  34.363  31.289  0.00  0.00    +0.150 HD
ENDROOT
BRANCH   1   5
ATOM      5  CA  ASP A   1      45.667  32.279  32.529  0.00  0.00    +0.156 C 
BRANCH   5   6
ATOM      6  N   ASP A   1      45.920  31.882  31.156  0.00  0.00    -0.238 NA
ATOM      7  H   ASP A   1      46.879  32.018  30.776  0.00  0.00    +0.142 HD
ENDBRANCH   5   6
BRANCH   5   8
ATOM      8  CB  ASP A   1      46.977  32.174  33.309  0.00  0.00    +0.140 C 
BRANCH   8   9
ATOM      9  CG  ASP A   1      46.813  31.473  34.641  0.00  0.00    +0.367 C 
ATOM     10  OD2 ASP A   1      47.052  32.134  35.678  0.00  0.00    -0.246 OA
ATOM     11  OD1 ASP A   1      46.458  30.269  34.655  0.00  0.00    -0.246 OA
ENDBRANCH   8   9
ENDBRANCH   5   8
ENDBRANCH   1   5
BRANCH   3  12
ATOM     12  CA  LYS A   2      45.590  36.105  32.174  0.00  0.00    +0.137 C 
BRANCH  12  13
ATOM     13  C   LYS A   2      44.535  36.740  31.281  0.00  0.00    +0.227 C 
ATOM     14  O   LYS A   2      43.716  37.529  31.749  0.00  0.00    -0.286 OA
ENDBRANCH  12  13
BRANCH  12  15
ATOM     15  CB  LYS A   2      46.915  36.873  32.010  0.00  0.00    +0.028 C 
BRANCH  15  16
ATOM     16  CG  LYS A   2      48.035  36.434  32.948  0.00  0.00    -0.000 C 
BRANCH  16  17
ATOM     17  CD  LYS A   2      47.673  36.684  34.387  0.00  0.00    -0.024 C 
BRANCH  17  18
ATOM     18  CE  LYS A   2      48.795  36.277  35.319  0.00  0.00    -0.086 C 
BRANCH  18  19
ATOM     19  NZ  LYS A   2      48.494  36.760  36.694  0.00  0.00    +0.380 N 
ATOM     20  HZ1 LYS A   2      49.264  36.481  37.335  0.00  0.00    -0.089 HD
ATOM     21  HZ2 LYS A   2      47.601  36.339  37.020  0.00  0.00    -0.089 HD
ATOM     22  HZ3 LYS A   2      48.408  37.796  36.685  0.00  0.00    -0.089 HD
ENDBRANCH  18  19
ENDBRANCH  17  18
ENDBRANCH  16  17
ENDBRANCH  15  16
ENDBRANCH  12  15
ENDBRANCH   3  12
TORSDOF 11
REMARK  Name = ../refined-set-2016/2oc2/2oc2_pocket.pdb
REMARK  275 active torsions:
REMARK  status: ('A' for Active; 'I' for Inactive)
REMARK    1  A    between atoms: _1  and  _3
REMARK    2  A    between atoms: _3  and  _4
REMARK    3  A    between atoms: _3  and  _6
REMARK    4  A    between atoms: _6  and  _7
REMARK    5  A    between atoms: _12  and  _14
REMARK    6  A    between atoms: _14  and  _15
REMARK    7  A    between atoms: _14  and  _17
REMARK    8  A    between atoms: _17  and  _18
REMARK    9  A    between atoms: _23  and  _25
REMARK   10  A    between atoms: _25  and  _26
REMARK   11  A    between atoms: _25  and  _28
REMARK   12  A    between atoms: _28  and  _29
REMARK   13  A    between atoms: _29  and  _30
REMARK   14  A    between atoms: _33  and  _35
REMARK   15  A    between atoms: _35  and  _36
REMARK   16  A    between atoms: _35  and  _38
REMARK   17  A    between atoms: _38  and  _39
REMARK   18  A    between atoms: _44  and  _45
REMARK   19  A    between atoms: _47  and  _49
REMARK   20  A    between atoms: _49  and  _50
REMARK   21  A    between atoms: _49  and  _52
REMARK   22  A    between atoms: _52  and  _53
REMARK   23  A    between atoms: _53  and  _54
REMARK   24  A    between atoms: _57  and  _59
REMARK   25  A    between atoms: _59  and  _60
REMARK   26  A    between atoms: _59  and  _62
REMARK   27  A    between atoms: _62  and  _63
REMARK   28  A    between atoms: _68  and  _70
REMARK   29  A    between atoms: _70  and  _71
REMARK   30  A    between atoms: _70  and  _73
REMARK   31  A    between atoms: _73  and  _74
REMARK   32  A    between atoms: _84  and  _86
REMARK   33  A    between atoms: _86  and  _87
REMARK   34  A    between atoms: _86  and  _89
REMARK   35  A    between atoms: _89  and  _90
REMARK   36  A    between atoms: _90  and  _91
REMARK   37  A    between atoms: _96  and  _98
REMARK   38  A    between atoms: _98  and  _99
REMARK   39  A    between atoms: _98  and  _101
REMARK   40  A    between atoms: _101  and  _102
REMARK   41  A    between atoms: _105  and  _107
REMARK   42  A    between atoms: _107  and  _108
REMARK   43  A    between atoms: _107  and  _110
REMARK   44  A    between atoms: _113  and  _115
REMARK   45  A    between atoms: _115  and  _116
REMARK   46  A    between atoms: _115  and  _118
REMARK   47  A    between atoms: _118  and  _119
REMARK   48  A    between atoms: _119  and  _247
REMARK   49  A    between atoms: _120  and  _122
REMARK   50  A    between atoms: _122  and  _123
REMARK   51  A    between atoms: _122  and  _125
REMARK   52  A    between atoms: _125  and  _126
REMARK   53  A    between atoms: _131  and  _133
REMARK   54  A    between atoms: _133  and  _134
REMARK   55  A    between atoms: _137  and  _139
REMARK   56  A    between atoms: _139  and  _140
REMARK   57  A    between atoms: _139  and  _142
REMARK   58  A    between atoms: _142  and  _143
REMARK   59  A    between atoms: _145  and  _147
REMARK   60  A    between atoms: _147  and  _148
REMARK   61  A    between atoms: _151  and  _153
REMARK   62  A    between atoms: _153  and  _154
REMARK   63  A    between atoms: _153  and  _156
REMARK   64  A    between atoms: _156  and  _157
REMARK   65  A    between atoms: _167  and  _169
REMARK   66  A    between atoms: _169  and  _170
REMARK   67  A    between atoms: _169  and  _172
REMARK   68  A    between atoms: _172  and  _173
REMARK   69  A    between atoms: _176  and  _178
REMARK   70  A    between atoms: _178  and  _179
REMARK   71  A    between atoms: _178  and  _181
REMARK   72  A    between atoms: _181  and  _182
REMARK   73  A    between atoms: _187  and  _188
REMARK   74  A    between atoms: _190  and  _192
REMARK   75  A    between atoms: _192  and  _193
REMARK   76  A    between atoms: _192  and  _195
REMARK   77  A    between atoms: _195  and  _196
REMARK   78  A    between atoms: _196  and  _197
REMARK   79  A    between atoms: _197  and  _198
REMARK   80  A    between atoms: _207  and  _209
REMARK   81  A    between atoms: _209  and  _210
REMARK   82  A    between atoms: _209  and  _212
REMARK   83  A    between atoms: _212  and  _213
REMARK   84  A    between atoms: _216  and  _218
REMARK   85  A    between atoms: _218  and  _219
REMARK   86  A    between atoms: _218  and  _221
REMARK   87  A    between atoms: _221  and  _222
REMARK   88  A    between atoms: _222  and  _223
REMARK   89  A    between atoms: _223  and  _224
REMARK   90  A    between atoms: _224  and  _225
REMARK   91  A    between atoms: _229  and  _231
REMARK   92  A    between atoms: _231  and  _232
REMARK   93  A    between atoms: _231  and  _234
REMARK   94  A    between atoms: _234  and  _235
REMARK   95  A    between atoms: _235  and  _236
REMARK   96  A    between atoms: _241  and  _243
REMARK   97  A    between atoms: _243  and  _244
REMARK   98  A    between atoms: _243  and  _246
REMARK   99  A    between atoms: _246  and  _247
REMARK  100  A    between atoms: _248  and  _250
REMARK  101  A    between atoms: _250  and  _251
REMARK  102  A    between atoms: _250  and  _253
REMARK  103  A    between atoms: _253  and  _254
REMARK  104  A    between atoms: _254  and  _255
REMARK  105  A    between atoms: _258  and  _260
REMARK  106  A    between atoms: _260  and  _261
REMARK  107  A    between atoms: _260  and  _263
REMARK  108  A    between atoms: _263  and  _264
REMARK  109  A    between atoms: _267  and  _269
REMARK  110  A    between atoms: _269  and  _270
REMARK  111  A    between atoms: _269  and  _272
REMARK  112  A    between atoms: _275  and  _277
REMARK  113  A    between atoms: _277  and  _278
REMARK  114  A    between atoms: _277  and  _280
REMARK  115  A    between atoms: _283  and  _285
REMARK  116  A    between atoms: _285  and  _286
REMARK  117  A    between atoms: _289  and  _291
REMARK  118  A    between atoms: _291  and  _292
REMARK  119  A    between atoms: _291  and  _294
REMARK  120  A    between atoms: _294  and  _295
REMARK  121  A    between atoms: _300  and  _302
REMARK  122  A    between atoms: _313  and  _316
REMARK  123  A    between atoms: _316  and  _317
REMARK  124  A    between atoms: _317  and  _318
REMARK  125  A    between atoms: _323  and  _326
REMARK  126  A    between atoms: _326  and  _327
REMARK  127  A    between atoms: _327  and  _328
REMARK  128  A    between atoms: _337  and  _338
REMARK  129  A    between atoms: _346  and  _348
REMARK  130  A    between atoms: _348  and  _349
REMARK  131  A    between atoms: _348  and  _351
REMARK  132  A    between atoms: _351  and  _352
REMARK  133  A    between atoms: _355  and  _357
REMARK  134  A    between atoms: _357  and  _358
REMARK  135  A    between atoms: _357  and  _360
REMARK  136  A    between atoms: _360  and  _361
REMARK  137  A    between atoms: _366  and  _367
REMARK  138  A    between atoms: _369  and  _371
REMARK  139  A    between atoms: _371  and  _372
REMARK  140  A    between atoms: _371  and  _374
REMARK  141  A    between atoms: _374  and  _375
REMARK  142  A    between atoms: _381  and  _383
REMARK  143  A    between atoms: _383  and  _384
REMARK  144  A    between atoms: _383  and  _386
REMARK  145  A    between atoms: _386  and  _387
REMARK  146  A    between atoms: _392  and  _393
REMARK  147  A    between atoms: _395  and  _397
REMARK  148  A    between atoms: _397  and  _398
REMARK  149  A    between atoms: _397  and  _400
REMARK  150  A    between atoms: _400  and  _401
REMARK  151  A    between atoms: _401  and  _402
REMARK  152  A    between atoms: _402  and  _403
REMARK  153  A    between atoms: _412  and  _414
REMARK  154  A    between atoms: _414  and  _415
REMARK  155  A    between atoms: _414  and  _417
REMARK  156  A    between atoms: _417  and  _418
REMARK  157  A    between atoms: _418  and  _419
REMARK  158  A    between atoms: _422  and  _424
REMARK  159  A    between atoms: _424  and  _425
REMARK  160  A    between atoms: _427  and  _429
REMARK  161  A    between atoms: _429  and  _430
REMARK  162  A    between atoms: _429  and  _432
REMARK  163  A    between atoms: _432  and  _433
REMARK  164  A    between atoms: _439  and  _440
REMARK  165  A    between atoms: _445  and  _447
REMARK  166  A    between atoms: _447  and  _448
REMARK  167  A    between atoms: _447  and  _450
REMARK  168  A    between atoms: _450  and  _451
REMARK  169  A    between atoms: _457  and  _459
REMARK  170  A    between atoms: _459  and  _460
REMARK  171  A    between atoms: _459  and  _462
REMARK  172  A    between atoms: _462  and  _463
REMARK  173  A    between atoms: _468  and  _470
REMARK  174  A    between atoms: _470  and  _471
REMARK  175  A    between atoms: _470  and  _473
REMARK  176  A    between atoms: _473  and  _474
REMARK  177  A    between atoms: _474  and  _475
REMARK  178  A    between atoms: _475  and  _476
REMARK  179  A    between atoms: _476  and  ZN_722
REMARK  180  A    between atoms: _478  and  _480
REMARK  181  A    between atoms: _480  and  _481
REMARK  182  A    between atoms: _484  and  _486
REMARK  183  A    between atoms: _486  and  _487
REMARK  184  A    between atoms: _489  and  _491
REMARK  185  A    between atoms: _491  and  _492
REMARK  186  A    between atoms: _491  and  _494
REMARK  187  A    between atoms: _494  and  _495
REMARK  188  A    between atoms: _498  and  _500
REMARK  189  A    between atoms: _500  and  _501
REMARK  190  A    between atoms: _504  and  _506
REMARK  191  A    between atoms: _506  and  _507
REMARK  192  A    between atoms: _506  and  _509
REMARK  193  A    between atoms: _509  and  _510
REMARK  194  A    between atoms: _513  and  _515
REMARK  195  A    between atoms: _515  and  _516
REMARK  196  A    between atoms: _515  and  _518
REMARK  197  A    between atoms: _518  and  _519
REMARK  198  A    between atoms: _519  and  _520
REMARK  199  A    between atoms: _520  and  _521
REMARK  200  A    between atoms: _521  and  _522
REMARK  201  A    between atoms: _526  and  _528
REMARK  202  A    between atoms: _528  and  _529
REMARK  203  A    between atoms: _528  and  _531
REMARK  204  A    between atoms: _531  and  _532
REMARK  205  A    between atoms: _538  and  _540
REMARK  206  A    between atoms: _540  and  _541
REMARK  207  A    between atoms: _540  and  _543
REMARK  208  A    between atoms: _543  and  _544
REMARK  209  A    between atoms: _550  and  _552
REMARK  210  A    between atoms: _552  and  _553
REMARK  211  A    between atoms: _552  and  _555
REMARK  212  A    between atoms: _555  and  _556
REMARK  213  A    between atoms: _558  and  _560
REMARK  214  A    between atoms: _560  and  _561
REMARK  215  A    between atoms: _560  and  _563
REMARK  216  A    between atoms: _566  and  _568
REMARK  217  A    between atoms: _568  and  _569
REMARK  218  A    between atoms: _568  and  _571
REMARK  219  A    between atoms: _571  and  _572
REMARK  220  A    between atoms: _572  and  _573
REMARK  221  A    between atoms: _573  and  _574
REMARK  222  A    between atoms: _574  and  _575
REMARK  223  A    between atoms: _579  and  _581
REMARK  224  A    between atoms: _581  and  _582
REMARK  225  A    between atoms: _581  and  _584
REMARK  226  A    between atoms: _584  and  _585
REMARK  227  A    between atoms: _591  and  _593
REMARK  228  A    between atoms: _593  and  _594
REMARK  229  A    between atoms: _593  and  _596
REMARK  230  A    between atoms: _596  and  _597
REMARK  231  A    between atoms: _602  and  _604
REMARK  232  A    between atoms: _604  and  _605
REMARK  233  A    between atoms: _604  and  _607
REMARK  234  A    between atoms: _607  and  _608
REMARK  235  A    between atoms: _610  and  _612
REMARK  236  A    between atoms: _612  and  _613
REMARK  237  A    between atoms: _612  and  _615
REMARK  238  A    between atoms: _615  and  _616
REMARK  239  A    between atoms: _618  and  _620
REMARK  240  A    between atoms: _620  and  _621
REMARK  241  A    between atoms: _620  and  _623
REMARK  242  A    between atoms: _627  and  _628
REMARK  243  A    between atoms: _633  and  _635
REMARK  244  A    between atoms: _635  and  _636
REMARK  245  A    between atoms: _635  and  _638
REMARK  246  A    between atoms: _638  and  _639
REMARK  247  A    between atoms: _644  and  _645
REMARK  248  A    between atoms: _647  and  _649
REMARK  249  A    between atoms: _649  and  _650
REMARK  250  A    between atoms: _649  and  _652
REMARK  251  A    between atoms: _652  and  _653
REMARK  252  A    between atoms: _653  and  _654
REMARK  253  A    between atoms: _654  and  _655
REMARK  254  A    between atoms: _664  and  _666
REMARK  255  A    between atoms: _666  and  _667
REMARK  256  A    between atoms: _666  and  _669
REMARK  257  A    between atoms: _669  and  _670
REMARK  258  A    between atoms: _675  and  _676
REMARK  259  A    between atoms: _678  and  _680
REMARK  260  A    between atoms: _680  and  _681
REMARK  261  A    between atoms: _680  and  _683
REMARK  262  A    between atoms: _683  and  _684
REMARK  263  A    between atoms: _690  and  _692
REMARK  264  A    between atoms: _692  and  _693
REMARK  265  A    between atoms: _692  and  _695
REMARK  266  A    between atoms: _695  and  _696
REMARK  267  A    between atoms: _698  and  _700
REMARK  268  A    between atoms: _700  and  _701
REMARK  269  A    between atoms: _700  and  _703
REMARK  270  A    between atoms: _703  and  _704
REMARK  271  A    between atoms: _710  and  _712
REMARK  272  A    between atoms: _712  and  _713
REMARK  273  A    between atoms: _712  and  _715
REMARK  274  A    between atoms: _715  and  _716
REMARK  275  A    between atoms: _716  and  _717
REMARK                            x       y       z     vdW  Elec       q    Type
REMARK                         _______ _______ _______ _____ _____    ______ ____
ROOT
ATOM      1  CB  PHE A   1      41.447  35.841  34.100  0.00  0.00    +0.051 C 
ENDROOT
BRANCH   1   2
ATOM      2  CG  PHE A   1      40.939  36.106  35.488  0.00  0.00    -0.020 A 
ATOM      3  CD2 PHE A   1      40.234  35.128  36.189  0.00  0.00    -0.004 A 
ATOM      4  CE2 PHE A   1      39.769  35.368  37.469  0.00  0.00    -0.000 A 
ATOM      5  CZ  PHE A   1      40.009  36.603  38.069  0.00  0.00    -0.000 A 
ATOM      6  CE1 PHE A   1      40.715  37.575  37.381  0.00  0.00    -0.000 A 
ATOM      7  CD1 PHE A   1      41.173  37.325  36.099  0.00  0.00    -0.004 A 
ENDBRANCH   1   2
BRANCH   1   8
ATOM      8  CA  PHE A   1      40.344  35.752  33.033  0.00  0.00    +0.137 C 
BRANCH   8   9
ATOM      9  N   PHE A   1      40.906  35.261  31.775  0.00  0.00    -0.239 NA
ATOM     10  H   PHE A   1      41.936  35.309  31.639  0.00  0.00    +0.142 HD
ENDBRANCH   8   9
BRANCH   8  11
ATOM     11  C   PHE A   1      39.604  37.085  32.888  0.00  0.00    +0.224 C 
ATOM     12  O   PHE A   1      38.639  37.340  33.616  0.00  0.00    -0.287 OA
ENDBRANCH   8  11
ENDBRANCH   1   8
TORSDOF 4
REMARK  Name = ../refined-set-2016/2oc2/2oc2_pocket.pdb
REMARK  275 active torsions:
REMARK  status: ('A' for Active; 'I' for Inactive)
REMARK    1  A    between atoms: _1  and  _3
REMARK    2  A    between atoms: _3  and  _4
REMARK    3  A    between atoms: _3  and  _6
REMARK    4  A    between atoms: _6  and  _7
REMARK    5  A    between atoms: _12  and  _14
REMARK    6  A    between atoms: _14  and  _15
REMARK    7  A    between atoms: _14  and  _17
REMARK    8  A    between atoms: _17  and  _18
REMARK    9  A    between atoms: _23  and  _25
REMARK   10  A    between atoms: _25  and  _26
REMARK   11  A    between atoms: _25  and  _28
REMARK   12  A    between atoms: _28  and  _29
REMARK   13  A    between atoms: _29  and  _30
REMARK   14  A    between atoms: _33  and  _35
REMARK   15  A    between atoms: _35  and  _36
REMARK   16  A    between atoms: _35  and  _38
REMARK   17  A    between atoms: _38  and  _39
REMARK   18  A    between atoms: _44  and  _45
REMARK   19  A    between atoms: _47  and  _49
REMARK   20  A    between atoms: _49  and  _50
REMARK   21  A    between atoms: _49  and  _52
REMARK   22  A    between atoms: _52  and  _53
REMARK   23  A    between atoms: _53  and  _54
REMARK   24  A    between atoms: _57  and  _59
REMARK   25  A    between atoms: _59  and  _60
REMARK   26  A    between atoms: _59  and  _62
REMARK   27  A    between atoms: _62  and  _63
REMARK   28  A    between atoms: _68  and  _70
REMARK   29  A    between atoms: _70  and  _71
REMARK   30  A    between atoms: _70  and  _73
REMARK   31  A    between atoms: _73  and  _74
REMARK   32  A    between atoms: _84  and  _86
REMARK   33  A    between atoms: _86  and  _87
REMARK   34  A    between atoms: _86  and  _89
REMARK   35  A    between atoms: _89  and  _90
REMARK   36  A    between atoms: _90  and  _91
REMARK   37  A    between atoms: _96  and  _98
REMARK   38  A    between atoms: _98  and  _99
REMARK   39  A    between atoms: _98  and  _101
REMARK   40  A    between atoms: _101  and  _102
REMARK   41  A    between atoms: _105  and  _107
REMARK   42  A    between atoms: _107  and  _108
REMARK   43  A    between atoms: _107  and  _110
REMARK   44  A    between atoms: _113  and  _115
REMARK   45  A    between atoms: _115  and  _116
REMARK   46  A    between atoms: _115  and  _118
REMARK   47  A    between atoms: _118  and  _119
REMARK   48  A    between atoms: _119  and  _247
REMARK   49  A    between atoms: _120  and  _122
REMARK   50  A    between atoms: _122  and  _123
REMARK   51  A    between atoms: _122  and  _125
REMARK   52  A    between atoms: _125  and  _126
REMARK   53  A    between atoms: _131  and  _133
REMARK   54  A    between atoms: _133  and  _134
REMARK   55  A    between atoms: _137  and  _139
REMARK   56  A    between atoms: _139  and  _140
REMARK   57  A    between atoms: _139  and  _142
REMARK   58  A    between atoms: _142  and  _143
REMARK   59  A    between atoms: _145  and  _147
REMARK   60  A    between atoms: _147  and  _148
REMARK   61  A    between atoms: _151  and  _153
REMARK   62  A    between atoms: _153  and  _154
REMARK   63  A    between atoms: _153  and  _156
REMARK   64  A    between atoms: _156  and  _157
REMARK   65  A    between atoms: _167  and  _169
REMARK   66  A    between atoms: _169  and  _170
REMARK   67  A    between atoms: _169  and  _172
REMARK   68  A    between atoms: _172  and  _173
REMARK   69  A    between atoms: _176  and  _178
REMARK   70  A    between atoms: _178  and  _179
REMARK   71  A    between atoms: _178  and  _181
REMARK   72  A    between atoms: _181  and  _182
REMARK   73  A    between atoms: _187  and  _188
REMARK   74  A    between atoms: _190  and  _192
REMARK   75  A    between atoms: _192  and  _193
REMARK   76  A    between atoms: _192  and  _195
REMARK   77  A    between atoms: _195  and  _196
REMARK   78  A    between atoms: _196  and  _197
REMARK   79  A    between atoms: _197  and  _198
REMARK   80  A    between atoms: _207  and  _209
REMARK   81  A    between atoms: _209  and  _210
REMARK   82  A    between atoms: _209  and  _212
REMARK   83  A    between atoms: _212  and  _213
REMARK   84  A    between atoms: _216  and  _218
REMARK   85  A    between atoms: _218  and  _219
REMARK   86  A    between atoms: _218  and  _221
REMARK   87  A    between atoms: _221  and  _222
REMARK   88  A    between atoms: _222  and  _223
REMARK   89  A    between atoms: _223  and  _224
REMARK   90  A    between atoms: _224  and  _225
REMARK   91  A    between atoms: _229  and  _231
REMARK   92  A    between atoms: _231  and  _232
REMARK   93  A    between atoms: _231  and  _234
REMARK   94  A    between atoms: _234  and  _235
REMARK   95  A    between atoms: _235  and  _236
REMARK   96  A    between atoms: _241  and  _243
REMARK   97  A    between atoms: _243  and  _244
REMARK   98  A    between atoms: _243  and  _246
REMARK   99  A    between atoms: _246  and  _247
REMARK  100  A    between atoms: _248  and  _250
REMARK  101  A    between atoms: _250  and  _251
REMARK  102  A    between atoms: _250  and  _253
REMARK  103  A    between atoms: _253  and  _254
REMARK  104  A    between atoms: _254  and  _255
REMARK  105  A    between atoms: _258  and  _260
REMARK  106  A    between atoms: _260  and  _261
REMARK  107  A    between atoms: _260  and  _263
REMARK  108  A    between atoms: _263  and  _264
REMARK  109  A    between atoms: _267  and  _269
REMARK  110  A    between atoms: _269  and  _270
REMARK  111  A    between atoms: _269  and  _272
REMARK  112  A    between atoms: _275  and  _277
REMARK  113  A    between atoms: _277  and  _278
REMARK  114  A    between atoms: _277  and  _280
REMARK  115  A    between atoms: _283  and  _285
REMARK  116  A    between atoms: _285  and  _286
REMARK  117  A    between atoms: _289  and  _291
REMARK  118  A    between atoms: _291  and  _292
REMARK  119  A    between atoms: _291  and  _294
REMARK  120  A    between atoms: _294  and  _295
REMARK  121  A    between atoms: _300  and  _302
REMARK  122  A    between atoms: _313  and  _316
REMARK  123  A    between atoms: _316  and  _317
REMARK  124  A    between atoms: _317  and  _318
REMARK  125  A    between atoms: _323  and  _326
REMARK  126  A    between atoms: _326  and  _327
REMARK  127  A    between atoms: _327  and  _328
REMARK  128  A    between atoms: _337  and  _338
REMARK  129  A    between atoms: _346  and  _348
REMARK  130  A    between atoms: _348  and  _349
REMARK  131  A    between atoms: _348  and  _351
REMARK  132  A    between atoms: _351  and  _352
REMARK  133  A    between atoms: _355  and  _357
REMARK  134  A    between atoms: _357  and  _358
REMARK  135  A    between atoms: _357  and  _360
REMARK  136  A    between atoms: _360  and  _361
REMARK  137  A    between atoms: _366  and  _367
REMARK  138  A    between atoms: _369  and  _371
REMARK  139  A    between atoms: _371  and  _372
REMARK  140  A    between atoms: _371  and  _374
REMARK  141  A    between atoms: _374  and  _375
REMARK  142  A    between atoms: _381  and  _383
REMARK  143  A    between atoms: _383  and  _384
REMARK  144  A    between atoms: _383  and  _386
REMARK  145  A    between atoms: _386  and  _387
REMARK  146  A    between atoms: _392  and  _393
REMARK  147  A    between atoms: _395  and  _397
REMARK  148  A    between atoms: _397  and  _398
REMARK  149  A    between atoms: _397  and  _400
REMARK  150  A    between atoms: _400  and  _401
REMARK  151  A    between atoms: _401  and  _402
REMARK  152  A    between atoms: _402  and  _403
REMARK  153  A    between atoms: _412  and  _414
REMARK  154  A    between atoms: _414  and  _415
REMARK  155  A    between atoms: _414  and  _417
REMARK  156  A    between atoms: _417  and  _418
REMARK  157  A    between atoms: _418  and  _419
REMARK  158  A    between atoms: _422  and  _424
REMARK  159  A    between atoms: _424  and  _425
REMARK  160  A    between atoms: _427  and  _429
REMARK  161  A    between atoms: _429  and  _430
REMARK  162  A    between atoms: _429  and  _432
REMARK  163  A    between atoms: _432  and  _433
REMARK  164  A    between atoms: _439  and  _440
REMARK  165  A    between atoms: _445  and  _447
REMARK  166  A    between atoms: _447  and  _448
REMARK  167  A    between atoms: _447  and  _450
REMARK  168  A    between atoms: _450  and  _451
REMARK  169  A    between atoms: _457  and  _459
REMARK  170  A    between atoms: _459  and  _460
REMARK  171  A    between atoms: _459  and  _462
REMARK  172  A    between atoms: _462  and  _463
REMARK  173  A    between atoms: _468  and  _470
REMARK  174  A    between atoms: _470  and  _471
REMARK  175  A    between atoms: _470  and  _473
REMARK  176  A    between atoms: _473  and  _474
REMARK  177  A    between atoms: _474  and  _475
REMARK  178  A    between atoms: _475  and  _476
REMARK  179  A    between atoms: _476  and  ZN_722
REMARK  180  A    between atoms: _478  and  _480
REMARK  181  A    between atoms: _480  and  _481
REMARK  182  A    between atoms: _484  and  _486
REMARK  183  A    between atoms: _486  and  _487
REMARK  184  A    between atoms: _489  and  _491
REMARK  185  A    between atoms: _491  and  _492
REMARK  186  A    between atoms: _491  and  _494
REMARK  187  A    between atoms: _494  and  _495
REMARK  188  A    between atoms: _498  and  _500
REMARK  189  A    between atoms: _500  and  _501
REMARK  190  A    between atoms: _504  and  _506
REMARK  191  A    between atoms: _506  and  _507
REMARK  192  A    between atoms: _506  and  _509
REMARK  193  A    between atoms: _509  and  _510
REMARK  194  A    between atoms: _513  and  _515
REMARK  195  A    between atoms: _515  and  _516
REMARK  196  A    between atoms: _515  and  _518
REMARK  197  A    between atoms: _518  and  _519
REMARK  198  A    between atoms: _519  and  _520
REMARK  199  A    between atoms: _520  and  _521
REMARK  200  A    between atoms: _521  and  _522
REMARK  201  A    between atoms: _526  and  _528
REMARK  202  A    between atoms: _528  and  _529
REMARK  203  A    between atoms: _528  and  _531
REMARK  204  A    between atoms: _531  and  _532
REMARK  205  A    between atoms: _538  and  _540
REMARK  206  A    between atoms: _540  and  _541
REMARK  207  A    between atoms: _540  and  _543
REMARK  208  A    between atoms: _543  and  _544
REMARK  209  A    between atoms: _550  and  _552
REMARK  210  A    between atoms: _552  and  _553
REMARK  211  A    between atoms: _552  and  _555
REMARK  212  A    between atoms: _555  and  _556
REMARK  213  A    between atoms: _558  and  _560
REMARK  214  A    between atoms: _560  and  _561
REMARK  215  A    between atoms: _560  and  _563
REMARK  216  A    between atoms: _566  and  _568
REMARK  217  A    between atoms: _568  and  _569
REMARK  218  A    between atoms: _568  and  _571
REMARK  219  A    between atoms: _571  and  _572
REMARK  220  A    between atoms: _572  and  _573
REMARK  221  A    between atoms: _573  and  _574
REMARK  222  A    between atoms: _574  and  _575
REMARK  223  A    between atoms: _579  and  _581
REMARK  224  A    between atoms: _581  and  _582
REMARK  225  A    between atoms: _581  and  _584
REMARK  226  A    between atoms: _584  and  _585
REMARK  227  A    between atoms: _591  and  _593
REMARK  228  A    between atoms: _593  and  _594
REMARK  229  A    between atoms: _593  and  _596
REMARK  230  A    between atoms: _596  and  _597
REMARK  231  A    between atoms: _602  and  _604
REMARK  232  A    between atoms: _604  and  _605
REMARK  233  A    between atoms: _604  and  _607
REMARK  234  A    between atoms: _607  and  _608
REMARK  235  A    between atoms: _610  and  _612
REMARK  236  A    between atoms: _612  and  _613
REMARK  237  A    between atoms: _612  and  _615
REMARK  238  A    between atoms: _615  and  _616
REMARK  239  A    between atoms: _618  and  _620
REMARK  240  A    between atoms: _620  and  _621
REMARK  241  A    between atoms: _620  and  _623
REMARK  242  A    between atoms: _627  and  _628
REMARK  243  A    between atoms: _633  and  _635
REMARK  244  A    between atoms: _635  and  _636
REMARK  245  A    between atoms: _635  and  _638
REMARK  246  A    between atoms: _638  and  _639
REMARK  247  A    between atoms: _644  and  _645
REMARK  248  A    between atoms: _647  and  _649
REMARK  249  A    between atoms: _649  and  _650
REMARK  250  A    between atoms: _649  and  _652
REMARK  251  A    between atoms: _652  and  _653
REMARK  252  A    between atoms: _653  and  _654
REMARK  253  A    between atoms: _654  and  _655
REMARK  254  A    between atoms: _664  and  _666
REMARK  255  A    between atoms: _666  and  _667
REMARK  256  A    between atoms: _666  and  _669
REMARK  257  A    between atoms: _669  and  _670
REMARK  258  A    between atoms: _675  and  _676
REMARK  259  A    between atoms: _678  and  _680
REMARK  260  A    between atoms: _680  and  _681
REMARK  261  A    between atoms: _680  and  _683
REMARK  262  A    between atoms: _683  and  _684
REMARK  263  A    between atoms: _690  and  _692
REMARK  264  A    between atoms: _692  and  _693
REMARK  265  A    between atoms: _692  and  _695
REMARK  266  A    between atoms: _695  and  _696
REMARK  267  A    between atoms: _698  and  _700
REMARK  268  A    between atoms: _700  and  _701
REMARK  269  A    between atoms: _700  and  _703
REMARK  270  A    between atoms: _703  and  _704
REMARK  271  A    between atoms: _710  and  _712
REMARK  272  A    between atoms: _712  and  _713
REMARK  273  A    between atoms: _712  and  _715
REMARK  274  A    between atoms: _715  and  _716
REMARK  275  A    between atoms: _716  and  _717
REMARK                            x       y       z     vdW  Elec       q    Type
REMARK                         _______ _______ _______ _____ _____    ______ ____
ROOT
ATOM      1  CA  PHE A   1      35.269  36.284  33.576  0.00  0.00    +0.149 C 
ENDROOT
BRANCH   1   2
ATOM      2  C   PHE A   1      35.201  37.208  34.807  0.00  0.00    +0.239 C 
ATOM      3  O   PHE A   1      34.143  37.333  35.416  0.00  0.00    -0.274 OA
ATOM      4  N   SER A   2      36.329  37.836  35.162  0.00  0.00    -0.296 N 
ATOM      5  H   SER A   2      37.201  37.645  34.628  0.00  0.00    +0.150 HD
BRANCH   4   6
ATOM      6  CA  SER A   2      36.373  38.778  36.272  0.00  0.00    +0.166 C 
BRANCH   6   7
ATOM      7  CB  SER A   2      35.527  40.033  36.041  0.00  0.00    +0.229 C 
ATOM      8  OG  SER A   2      35.099  40.681  37.000  0.00  0.00    -0.286 OA
ENDBRANCH   6   7
BRANCH   6   9
ATOM      9  C   SER A   2      37.815  39.152  36.621  0.00  0.00    +0.165 C 
BRANCH   9  10
ATOM     10  O   SER A   2      38.483  39.744  35.518  0.00  0.00    -0.380 OA
ATOM     11  H   SER A   2      38.500  39.105  34.762  0.00  0.00    +0.211 HD
ENDBRANCH   9  10
ENDBRANCH   6   9
ENDBRANCH   4   6
ENDBRANCH   1   2
BRANCH   1  12
ATOM     12  N   PHE A   1      35.880  36.908  32.407  0.00  0.00    -0.238 NA
ATOM     13  H   PHE A   1      36.821  36.597  32.092  0.00  0.00    +0.142 HD
ENDBRANCH   1  12
BRANCH   1  14
ATOM     14  CB  PHE A   1      35.926  34.942  33.945  0.00  0.00    +0.053 C 
BRANCH  14  15
ATOM     15  CG  PHE A   1      35.332  34.303  35.180  0.00  0.00    -0.020 A 
ATOM     16  CD2 PHE A   1      35.843  34.587  36.448  0.00  0.00    -0.004 A 
ATOM     17  CE2 PHE A   1      35.294  34.012  37.595  0.00  0.00    -0.000 A 
ATOM     18  CZ  PHE A   1      34.216  33.139  37.472  0.00  0.00    -0.000 A 
ATOM     19  CE1 PHE A   1      33.700  32.852  36.209  0.00  0.00    -0.000 A 
ATOM     20  CD1 PHE A   1      34.248  33.437  35.079  0.00  0.00    -0.004 A 
ENDBRANCH  14  15
ENDBRANCH   1  14
TORSDOF 8
REMARK  Name = ../refined-set-2016/2oc2/2oc2_pocket.pdb
REMARK  275 active torsions:
REMARK  status: ('A' for Active; 'I' for Inactive)
REMARK    1  A    between atoms: _1  and  _3
REMARK    2  A    between atoms: _3  and  _4
REMARK    3  A    between atoms: _3  and  _6
REMARK    4  A    between atoms: _6  and  _7
REMARK    5  A    between atoms: _12  and  _14
REMARK    6  A    between atoms: _14  and  _15
REMARK    7  A    between atoms: _14  and  _17
REMARK    8  A    between atoms: _17  and  _18
REMARK    9  A    between atoms: _23  and  _25
REMARK   10  A    between atoms: _25  and  _26
REMARK   11  A    between atoms: _25  and  _28
REMARK   12  A    between atoms: _28  and  _29
REMARK   13  A    between atoms: _29  and  _30
REMARK   14  A    between atoms: _33  and  _35
REMARK   15  A    between atoms: _35  and  _36
REMARK   16  A    between atoms: _35  and  _38
REMARK   17  A    between atoms: _38  and  _39
REMARK   18  A    between atoms: _44  and  _45
REMARK   19  A    between atoms: _47  and  _49
REMARK   20  A    between atoms: _49  and  _50
REMARK   21  A    between atoms: _49  and  _52
REMARK   22  A    between atoms: _52  and  _53
REMARK   23  A    between atoms: _53  and  _54
REMARK   24  A    between atoms: _57  and  _59
REMARK   25  A    between atoms: _59  and  _60
REMARK   26  A    between atoms: _59  and  _62
REMARK   27  A    between atoms: _62  and  _63
REMARK   28  A    between atoms: _68  and  _70
REMARK   29  A    between atoms: _70  and  _71
REMARK   30  A    between atoms: _70  and  _73
REMARK   31  A    between atoms: _73  and  _74
REMARK   32  A    between atoms: _84  and  _86
REMARK   33  A    between atoms: _86  and  _87
REMARK   34  A    between atoms: _86  and  _89
REMARK   35  A    between atoms: _89  and  _90
REMARK   36  A    between atoms: _90  and  _91
REMARK   37  A    between atoms: _96  and  _98
REMARK   38  A    between atoms: _98  and  _99
REMARK   39  A    between atoms: _98  and  _101
REMARK   40  A    between atoms: _101  and  _102
REMARK   41  A    between atoms: _105  and  _107
REMARK   42  A    between atoms: _107  and  _108
REMARK   43  A    between atoms: _107  and  _110
REMARK   44  A    between atoms: _113  and  _115
REMARK   45  A    between atoms: _115  and  _116
REMARK   46  A    between atoms: _115  and  _118
REMARK   47  A    between atoms: _118  and  _119
REMARK   48  A    between atoms: _119  and  _247
REMARK   49  A    between atoms: _120  and  _122
REMARK   50  A    between atoms: _122  and  _123
REMARK   51  A    between atoms: _122  and  _125
REMARK   52  A    between atoms: _125  and  _126
REMARK   53  A    between atoms: _131  and  _133
REMARK   54  A    between atoms: _133  and  _134
REMARK   55  A    between atoms: _137  and  _139
REMARK   56  A    between atoms: _139  and  _140
REMARK   57  A    between atoms: _139  and  _142
REMARK   58  A    between atoms: _142  and  _143
REMARK   59  A    between atoms: _145  and  _147
REMARK   60  A    between atoms: _147  and  _148
REMARK   61  A    between atoms: _151  and  _153
REMARK   62  A    between atoms: _153  and  _154
REMARK   63  A    between atoms: _153  and  _156
REMARK   64  A    between atoms: _156  and  _157
REMARK   65  A    between atoms: _167  and  _169
REMARK   66  A    between atoms: _169  and  _170
REMARK   67  A    between atoms: _169  and  _172
REMARK   68  A    between atoms: _172  and  _173
REMARK   69  A    between atoms: _176  and  _178
REMARK   70  A    between atoms: _178  and  _179
REMARK   71  A    between atoms: _178  and  _181
REMARK   72  A    between atoms: _181  and  _182
REMARK   73  A    between atoms: _187  and  _188
REMARK   74  A    between atoms: _190  and  _192
REMARK   75  A    between atoms: _192  and  _193
REMARK   76  A    between atoms: _192  and  _195
REMARK   77  A    between atoms: _195  and  _196
REMARK   78  A    between atoms: _196  and  _197
REMARK   79  A    between atoms: _197  and  _198
REMARK   80  A    between atoms: _207  and  _209
REMARK   81  A    between atoms: _209  and  _210
REMARK   82  A    between atoms: _209  and  _212
REMARK   83  A    between atoms: _212  and  _213
REMARK   84  A    between atoms: _216  and  _218
REMARK   85  A    between atoms: _218  and  _219
REMARK   86  A    between atoms: _218  and  _221
REMARK   87  A    between atoms: _221  and  _222
REMARK   88  A    between atoms: _222  and  _223
REMARK   89  A    between atoms: _223  and  _224
REMARK   90  A    between atoms: _224  and  _225
REMARK   91  A    between atoms: _229  and  _231
REMARK   92  A    between atoms: _231  and  _232
REMARK   93  A    between atoms: _231  and  _234
REMARK   94  A    between atoms: _234  and  _235
REMARK   95  A    between atoms: _235  and  _236
REMARK   96  A    between atoms: _241  and  _243
REMARK   97  A    between atoms: _243  and  _244
REMARK   98  A    between atoms: _243  and  _246
REMARK   99  A    between atoms: _246  and  _247
REMARK  100  A    between atoms: _248  and  _250
REMARK  101  A    between atoms: _250  and  _251
REMARK  102  A    between atoms: _250  and  _253
REMARK  103  A    between atoms: _253  and  _254
REMARK  104  A    between atoms: _254  and  _255
REMARK  105  A    between atoms: _258  and  _260
REMARK  106  A    between atoms: _260  and  _261
REMARK  107  A    between atoms: _260  and  _263
REMARK  108  A    between atoms: _263  and  _264
REMARK  109  A    between atoms: _267  and  _269
REMARK  110  A    between atoms: _269  and  _270
REMARK  111  A    between atoms: _269  and  _272
REMARK  112  A    between atoms: _275  and  _277
REMARK  113  A    between atoms: _277  and  _278
REMARK  114  A    between atoms: _277  and  _280
REMARK  115  A    between atoms: _283  and  _285
REMARK  116  A    between atoms: _285  and  _286
REMARK  117  A    between atoms: _289  and  _291
REMARK  118  A    between atoms: _291  and  _292
REMARK  119  A    between atoms: _291  and  _294
REMARK  120  A    between atoms: _294  and  _295
REMARK  121  A    between atoms: _300  and  _302
REMARK  122  A    between atoms: _313  and  _316
REMARK  123  A    between atoms: _316  and  _317
REMARK  124  A    between atoms: _317  and  _318
REMARK  125  A    between atoms: _323  and  _326
REMARK  126  A    between atoms: _326  and  _327
REMARK  127  A    between atoms: _327  and  _328
REMARK  128  A    between atoms: _337  and  _338
REMARK  129  A    between atoms: _346  and  _348
REMARK  130  A    between atoms: _348  and  _349
REMARK  131  A    between atoms: _348  and  _351
REMARK  132  A    between atoms: _351  and  _352
REMARK  133  A    between atoms: _355  and  _357
REMARK  134  A    between atoms: _357  and  _358
REMARK  135  A    between atoms: _357  and  _360
REMARK  136  A    between atoms: _360  and  _361
REMARK  137  A    between atoms: _366  and  _367
REMARK  138  A    between atoms: _369  and  _371
REMARK  139  A    between atoms: _371  and  _372
REMARK  140  A    between atoms: _371  and  _374
REMARK  141  A    between atoms: _374  and  _375
REMARK  142  A    between atoms: _381  and  _383
REMARK  143  A    between atoms: _383  and  _384
REMARK  144  A    between atoms: _383  and  _386
REMARK  145  A    between atoms: _386  and  _387
REMARK  146  A    between atoms: _392  and  _393
REMARK  147  A    between atoms: _395  and  _397
REMARK  148  A    between atoms: _397  and  _398
REMARK  149  A    between atoms: _397  and  _400
REMARK  150  A    between atoms: _400  and  _401
REMARK  151  A    between atoms: _401  and  _402
REMARK  152  A    between atoms: _402  and  _403
REMARK  153  A    between atoms: _412  and  _414
REMARK  154  A    between atoms: _414  and  _415
REMARK  155  A    between atoms: _414  and  _417
REMARK  156  A    between atoms: _417  and  _418
REMARK  157  A    between atoms: _418  and  _419
REMARK  158  A    between atoms: _422  and  _424
REMARK  159  A    between atoms: _424  and  _425
REMARK  160  A    between atoms: _427  and  _429
REMARK  161  A    between atoms: _429  and  _430
REMARK  162  A    between atoms: _429  and  _432
REMARK  163  A    between atoms: _432  and  _433
REMARK  164  A    between atoms: _439  and  _440
REMARK  165  A    between atoms: _445  and  _447
REMARK  166  A    between atoms: _447  and  _448
REMARK  167  A    between atoms: _447  and  _450
REMARK  168  A    between atoms: _450  and  _451
REMARK  169  A    between atoms: _457  and  _459
REMARK  170  A    between atoms: _459  and  _460
REMARK  171  A    between atoms: _459  and  _462
REMARK  172  A    between atoms: _462  and  _463
REMARK  173  A    between atoms: _468  and  _470
REMARK  174  A    between atoms: _470  and  _471
REMARK  175  A    between atoms: _470  and  _473
REMARK  176  A    between atoms: _473  and  _474
REMARK  177  A    between atoms: _474  and  _475
REMARK  178  A    between atoms: _475  and  _476
REMARK  179  A    between atoms: _476  and  ZN_722
REMARK  180  A    between atoms: _478  and  _480
REMARK  181  A    between atoms: _480  and  _481
REMARK  182  A    between atoms: _484  and  _486
REMARK  183  A    between atoms: _486  and  _487
REMARK  184  A    between atoms: _489  and  _491
REMARK  185  A    between atoms: _491  and  _492
REMARK  186  A    between atoms: _491  and  _494
REMARK  187  A    between atoms: _494  and  _495
REMARK  188  A    between atoms: _498  and  _500
REMARK  189  A    between atoms: _500  and  _501
REMARK  190  A    between atoms: _504  and  _506
REMARK  191  A    between atoms: _506  and  _507
REMARK  192  A    between atoms: _506  and  _509
REMARK  193  A    between atoms: _509  and  _510
REMARK  194  A    between atoms: _513  and  _515
REMARK  195  A    between atoms: _515  and  _516
REMARK  196  A    between atoms: _515  and  _518
REMARK  197  A    between atoms: _518  and  _519
REMARK  198  A    between atoms: _519  and  _520
REMARK  199  A    between atoms: _520  and  _521
REMARK  200  A    between atoms: _521  and  _522
REMARK  201  A    between atoms: _526  and  _528
REMARK  202  A    between atoms: _528  and  _529
REMARK  203  A    between atoms: _528  and  _531
REMARK  204  A    between atoms: _531  and  _532
REMARK  205  A    between atoms: _538  and  _540
REMARK  206  A    between atoms: _540  and  _541
REMARK  207  A    between atoms: _540  and  _543
REMARK  208  A    between atoms: _543  and  _544
REMARK  209  A    between atoms: _550  and  _552
REMARK  210  A    between atoms: _552  and  _553
REMARK  211  A    between atoms: _552  and  _555
REMARK  212  A    between atoms: _555  and  _556
REMARK  213  A    between atoms: _558  and  _560
REMARK  214  A    between atoms: _560  and  _561
REMARK  215  A    between atoms: _560  and  _563
REMARK  216  A    between atoms: _566  and  _568
REMARK  217  A    between atoms: _568  and  _569
REMARK  218  A    between atoms: _568  and  _571
REMARK  219  A    between atoms: _571  and  _572
REMARK  220  A    between atoms: _572  and  _573
REMARK  221  A    between atoms: _573  and  _574
REMARK  222  A    between atoms: _574  and  _575
REMARK  223  A    between atoms: _579  and  _581
REMARK  224  A    between atoms: _581  and  _582
REMARK  225  A    between atoms: _581  and  _584
REMARK  226  A    between atoms: _584  and  _585
REMARK  227  A    between atoms: _591  and  _593
REMARK  228  A    between atoms: _593  and  _594
REMARK  229  A    between atoms: _593  and  _596
REMARK  230  A    between atoms: _596  and  _597
REMARK  231  A    between atoms: _602  and  _604
REMARK  232  A    between atoms: _604  and  _605
REMARK  233  A    between atoms: _604  and  _607
REMARK  234  A    between atoms: _607  and  _608
REMARK  235  A    between atoms: _610  and  _612
REMARK  236  A    between atoms: _612  and  _613
REMARK  237  A    between atoms: _612  and  _615
REMARK  238  A    between atoms: _615  and  _616
REMARK  239  A    between atoms: _618  and  _620
REMARK  240  A    between atoms: _620  and  _621
REMARK  241  A    between atoms: _620  and  _623
REMARK  242  A    between atoms: _627  and  _628
REMARK  243  A    between atoms: _633  and  _635
REMARK  244  A    between atoms: _635  and  _636
REMARK  245  A    between atoms: _635  and  _638
REMARK  246  A    between atoms: _638  and  _639
REMARK  247  A    between atoms: _644  and  _645
REMARK  248  A    between atoms: _647  and  _649
REMARK  249  A    between atoms: _649  and  _650
REMARK  250  A    between atoms: _649  and  _652
REMARK  251  A    between atoms: _652  and  _653
REMARK  252  A    between atoms: _653  and  _654
REMARK  253  A    between atoms: _654  and  _655
REMARK  254  A    between atoms: _664  and  _666
REMARK  255  A    between atoms: _666  and  _667
REMARK  256  A    between atoms: _666  and  _669
REMARK  257  A    between atoms: _669  and  _670
REMARK  258  A    between atoms: _675  and  _676
REMARK  259  A    between atoms: _678  and  _680
REMARK  260  A    between atoms: _680  and  _681
REMARK  261  A    between atoms: _680  and  _683
REMARK  262  A    between atoms: _683  and  _684
REMARK  263  A    between atoms: _690  and  _692
REMARK  264  A    between atoms: _692  and  _693
REMARK  265  A    between atoms: _692  and  _695
REMARK  266  A    between atoms: _695  and  _696
REMARK  267  A    between atoms: _698  and  _700
REMARK  268  A    between atoms: _700  and  _701
REMARK  269  A    between atoms: _700  and  _703
REMARK  270  A    between atoms: _703  and  _704
REMARK  271  A    between atoms: _710  and  _712
REMARK  272  A    between atoms: _712  and  _713
REMARK  273  A    between atoms: _712  and  _715
REMARK  274  A    between atoms: _715  and  _716
REMARK  275  A    between atoms: _716  and  _717
REMARK                            x       y       z     vdW  Elec       q    Type
REMARK                         _______ _______ _______ _____ _____    ______ ____
ROOT
ATOM      1  CA  VAL A   1      30.790  38.272  38.086  0.00  0.00    +0.133 C 
ENDROOT
BRANCH   1   2
ATOM      2  CB  VAL A   1      31.917  37.718  39.026  0.00  0.00    +0.023 C 
ATOM      3  CG2 VAL A   1      31.378  37.373  40.420  0.00  0.00    +0.002 C 
ATOM      4  CG1 VAL A   1      32.597  36.486  38.382  0.00  0.00    +0.002 C 
ENDBRANCH   1   2
BRANCH   1   5
ATOM      5  N   VAL A   1      31.331  38.631  36.776  0.00  0.00    -0.239 NA
ATOM      6  H   VAL A   1      32.344  38.471  36.601  0.00  0.00    +0.142 HD
ENDBRANCH   1   5
BRANCH   1   7
ATOM      7  C   VAL A   1      30.000  39.407  38.744  0.00  0.00    +0.224 C 
ATOM      8  O   VAL A   1      28.843  39.225  39.114  0.00  0.00    -0.287 OA
ENDBRANCH   1   7
TORSDOF 3
REMARK  Name = ../refined-set-2016/2oc2/2oc2_pocket.pdb
REMARK  275 active torsions:
REMARK  status: ('A' for Active; 'I' for Inactive)
REMARK    1  A    between atoms: _1  and  _3
REMARK    2  A    between atoms: _3  and  _4
REMARK    3  A    between atoms: _3  and  _6
REMARK    4  A    between atoms: _6  and  _7
REMARK    5  A    between atoms: _12  and  _14
REMARK    6  A    between atoms: _14  and  _15
REMARK    7  A    between atoms: _14  and  _17
REMARK    8  A    between atoms: _17  and  _18
REMARK    9  A    between atoms: _23  and  _25
REMARK   10  A    between atoms: _25  and  _26
REMARK   11  A    between atoms: _25  and  _28
REMARK   12  A    between atoms: _28  and  _29
REMARK   13  A    between atoms: _29  and  _30
REMARK   14  A    between atoms: _33  and  _35
REMARK   15  A    between atoms: _35  and  _36
REMARK   16  A    between atoms: _35  and  _38
REMARK   17  A    between atoms: _38  and  _39
REMARK   18  A    between atoms: _44  and  _45
REMARK   19  A    between atoms: _47  and  _49
REMARK   20  A    between atoms: _49  and  _50
REMARK   21  A    between atoms: _49  and  _52
REMARK   22  A    between atoms: _52  and  _53
REMARK   23  A    between atoms: _53  and  _54
REMARK   24  A    between atoms: _57  and  _59
REMARK   25  A    between atoms: _59  and  _60
REMARK   26  A    between atoms: _59  and  _62
REMARK   27  A    between atoms: _62  and  _63
REMARK   28  A    between atoms: _68  and  _70
REMARK   29  A    between atoms: _70  and  _71
REMARK   30  A    between atoms: _70  and  _73
REMARK   31  A    between atoms: _73  and  _74
REMARK   32  A    between atoms: _84  and  _86
REMARK   33  A    between atoms: _86  and  _87
REMARK   34  A    between atoms: _86  and  _89
REMARK   35  A    between atoms: _89  and  _90
REMARK   36  A    between atoms: _90  and  _91
REMARK   37  A    between atoms: _96  and  _98
REMARK   38  A    between atoms: _98  and  _99
REMARK   39  A    between atoms: _98  and  _101
REMARK   40  A    between atoms: _101  and  _102
REMARK   41  A    between atoms: _105  and  _107
REMARK   42  A    between atoms: _107  and  _108
REMARK   43  A    between atoms: _107  and  _110
REMARK   44  A    between atoms: _113  and  _115
REMARK   45  A    between atoms: _115  and  _116
REMARK   46  A    between atoms: _115  and  _118
REMARK   47  A    between atoms: _118  and  _119
REMARK   48  A    between atoms: _119  and  _247
REMARK   49  A    between atoms: _120  and  _122
REMARK   50  A    between atoms: _122  and  _123
REMARK   51  A    between atoms: _122  and  _125
REMARK   52  A    between atoms: _125  and  _126
REMARK   53  A    between atoms: _131  and  _133
REMARK   54  A    between atoms: _133  and  _134
REMARK   55  A    between atoms: _137  and  _139
REMARK   56  A    between atoms: _139  and  _140
REMARK   57  A    between atoms: _139  and  _142
REMARK   58  A    between atoms: _142  and  _143
REMARK   59  A    between atoms: _145  and  _147
REMARK   60  A    between atoms: _147  and  _148
REMARK   61  A    between atoms: _151  and  _153
REMARK   62  A    between atoms: _153  and  _154
REMARK   63  A    between atoms: _153  and  _156
REMARK   64  A    between atoms: _156  and  _157
REMARK   65  A    between atoms: _167  and  _169
REMARK   66  A    between atoms: _169  and  _170
REMARK   67  A    between atoms: _169  and  _172
REMARK   68  A    between atoms: _172  and  _173
REMARK   69  A    between atoms: _176  and  _178
REMARK   70  A    between atoms: _178  and  _179
REMARK   71  A    between atoms: _178  and  _181
REMARK   72  A    between atoms: _181  and  _182
REMARK   73  A    between atoms: _187  and  _188
REMARK   74  A    between atoms: _190  and  _192
REMARK   75  A    between atoms: _192  and  _193
REMARK   76  A    between atoms: _192  and  _195
REMARK   77  A    between atoms: _195  and  _196
REMARK   78  A    between atoms: _196  and  _197
REMARK   79  A    between atoms: _197  and  _198
REMARK   80  A    between atoms: _207  and  _209
REMARK   81  A    between atoms: _209  and  _210
REMARK   82  A    between atoms: _209  and  _212
REMARK   83  A    between atoms: _212  and  _213
REMARK   84  A    between atoms: _216  and  _218
REMARK   85  A    between atoms: _218  and  _219
REMARK   86  A    between atoms: _218  and  _221
REMARK   87  A    between atoms: _221  and  _222
REMARK   88  A    between atoms: _222  and  _223
REMARK   89  A    between atoms: _223  and  _224
REMARK   90  A    between atoms: _224  and  _225
REMARK   91  A    between atoms: _229  and  _231
REMARK   92  A    between atoms: _231  and  _232
REMARK   93  A    between atoms: _231  and  _234
REMARK   94  A    between atoms: _234  and  _235
REMARK   95  A    between atoms: _235  and  _236
REMARK   96  A    between atoms: _241  and  _243
REMARK   97  A    between atoms: _243  and  _244
REMARK   98  A    between atoms: _243  and  _246
REMARK   99  A    between atoms: _246  and  _247
REMARK  100  A    between atoms: _248  and  _250
REMARK  101  A    between atoms: _250  and  _251
REMARK  102  A    between atoms: _250  and  _253
REMARK  103  A    between atoms: _253  and  _254
REMARK  104  A    between atoms: _254  and  _255
REMARK  105  A    between atoms: _258  and  _260
REMARK  106  A    between atoms: _260  and  _261
REMARK  107  A    between atoms: _260  and  _263
REMARK  108  A    between atoms: _263  and  _264
REMARK  109  A    between atoms: _267  and  _269
REMARK  110  A    between atoms: _269  and  _270
REMARK  111  A    between atoms: _269  and  _272
REMARK  112  A    between atoms: _275  and  _277
REMARK  113  A    between atoms: _277  and  _278
REMARK  114  A    between atoms: _277  and  _280
REMARK  115  A    between atoms: _283  and  _285
REMARK  116  A    between atoms: _285  and  _286
REMARK  117  A    between atoms: _289  and  _291
REMARK  118  A    between atoms: _291  and  _292
REMARK  119  A    between atoms: _291  and  _294
REMARK  120  A    between atoms: _294  and  _295
REMARK  121  A    between atoms: _300  and  _302
REMARK  122  A    between atoms: _313  and  _316
REMARK  123  A    between atoms: _316  and  _317
REMARK  124  A    between atoms: _317  and  _318
REMARK  125  A    between atoms: _323  and  _326
REMARK  126  A    between atoms: _326  and  _327
REMARK  127  A    between atoms: _327  and  _328
REMARK  128  A    between atoms: _337  and  _338
REMARK  129  A    between atoms: _346  and  _348
REMARK  130  A    between atoms: _348  and  _349
REMARK  131  A    between atoms: _348  and  _351
REMARK  132  A    between atoms: _351  and  _352
REMARK  133  A    between atoms: _355  and  _357
REMARK  134  A    between atoms: _357  and  _358
REMARK  135  A    between atoms: _357  and  _360
REMARK  136  A    between atoms: _360  and  _361
REMARK  137  A    between atoms: _366  and  _367
REMARK  138  A    between atoms: _369  and  _371
REMARK  139  A    between atoms: _371  and  _372
REMARK  140  A    between atoms: _371  and  _374
REMARK  141  A    between atoms: _374  and  _375
REMARK  142  A    between atoms: _381  and  _383
REMARK  143  A    between atoms: _383  and  _384
REMARK  144  A    between atoms: _383  and  _386
REMARK  145  A    between atoms: _386  and  _387
REMARK  146  A    between atoms: _392  and  _393
REMARK  147  A    between atoms: _395  and  _397
REMARK  148  A    between atoms: _397  and  _398
REMARK  149  A    between atoms: _397  and  _400
REMARK  150  A    between atoms: _400  and  _401
REMARK  151  A    between atoms: _401  and  _402
REMARK  152  A    between atoms: _402  and  _403
REMARK  153  A    between atoms: _412  and  _414
REMARK  154  A    between atoms: _414  and  _415
REMARK  155  A    between atoms: _414  and  _417
REMARK  156  A    between atoms: _417  and  _418
REMARK  157  A    between atoms: _418  and  _419
REMARK  158  A    between atoms: _422  and  _424
REMARK  159  A    between atoms: _424  and  _425
REMARK  160  A    between atoms: _427  and  _429
REMARK  161  A    between atoms: _429  and  _430
REMARK  162  A    between atoms: _429  and  _432
REMARK  163  A    between atoms: _432  and  _433
REMARK  164  A    between atoms: _439  and  _440
REMARK  165  A    between atoms: _445  and  _447
REMARK  166  A    between atoms: _447  and  _448
REMARK  167  A    between atoms: _447  and  _450
REMARK  168  A    between atoms: _450  and  _451
REMARK  169  A    between atoms: _457  and  _459
REMARK  170  A    between atoms: _459  and  _460
REMARK  171  A    between atoms: _459  and  _462
REMARK  172  A    between atoms: _462  and  _463
REMARK  173  A    between atoms: _468  and  _470
REMARK  174  A    between atoms: _470  and  _471
REMARK  175  A    between atoms: _470  and  _473
REMARK  176  A    between atoms: _473  and  _474
REMARK  177  A    between atoms: _474  and  _475
REMARK  178  A    between atoms: _475  and  _476
REMARK  179  A    between atoms: _476  and  ZN_722
REMARK  180  A    between atoms: _478  and  _480
REMARK  181  A    between atoms: _480  and  _481
REMARK  182  A    between atoms: _484  and  _486
REMARK  183  A    between atoms: _486  and  _487
REMARK  184  A    between atoms: _489  and  _491
REMARK  185  A    between atoms: _491  and  _492
REMARK  186  A    between atoms: _491  and  _494
REMARK  187  A    between atoms: _494  and  _495
REMARK  188  A    between atoms: _498  and  _500
REMARK  189  A    between atoms: _500  and  _501
REMARK  190  A    between atoms: _504  and  _506
REMARK  191  A    between atoms: _506  and  _507
REMARK  192  A    between atoms: _506  and  _509
REMARK  193  A    between atoms: _509  and  _510
REMARK  194  A    between atoms: _513  and  _515
REMARK  195  A    between atoms: _515  and  _516
REMARK  196  A    between atoms: _515  and  _518
REMARK  197  A    between atoms: _518  and  _519
REMARK  198  A    between atoms: _519  and  _520
REMARK  199  A    between atoms: _520  and  _521
REMARK  200  A    between atoms: _521  and  _522
REMARK  201  A    between atoms: _526  and  _528
REMARK  202  A    between atoms: _528  and  _529
REMARK  203  A    between atoms: _528  and  _531
REMARK  204  A    between atoms: _531  and  _532
REMARK  205  A    between atoms: _538  and  _540
REMARK  206  A    between atoms: _540  and  _541
REMARK  207  A    between atoms: _540  and  _543
REMARK  208  A    between atoms: _543  and  _544
REMARK  209  A    between atoms: _550  and  _552
REMARK  210  A    between atoms: _552  and  _553
REMARK  211  A    between atoms: _552  and  _555
REMARK  212  A    between atoms: _555  and  _556
REMARK  213  A    between atoms: _558  and  _560
REMARK  214  A    between atoms: _560  and  _561
REMARK  215  A    between atoms: _560  and  _563
REMARK  216  A    between atoms: _566  and  _568
REMARK  217  A    between atoms: _568  and  _569
REMARK  218  A    between atoms: _568  and  _571
REMARK  219  A    between atoms: _571  and  _572
REMARK  220  A    between atoms: _572  and  _573
REMARK  221  A    between atoms: _573  and  _574
REMARK  222  A    between atoms: _574  and  _575
REMARK  223  A    between atoms: _579  and  _581
REMARK  224  A    between atoms: _581  and  _582
REMARK  225  A    between atoms: _581  and  _584
REMARK  226  A    between atoms: _584  and  _585
REMARK  227  A    between atoms: _591  and  _593
REMARK  228  A    between atoms: _593  and  _594
REMARK  229  A    between atoms: _593  and  _596
REMARK  230  A    between atoms: _596  and  _597
REMARK  231  A    between atoms: _602  and  _604
REMARK  232  A    between atoms: _604  and  _605
REMARK  233  A    between atoms: _604  and  _607
REMARK  234  A    between atoms: _607  and  _608
REMARK  235  A    between atoms: _610  and  _612
REMARK  236  A    between atoms: _612  and  _613
REMARK  237  A    between atoms: _612  and  _615
REMARK  238  A    between atoms: _615  and  _616
REMARK  239  A    between atoms: _618  and  _620
REMARK  240  A    between atoms: _620  and  _621
REMARK  241  A    between atoms: _620  and  _623
REMARK  242  A    between atoms: _627  and  _628
REMARK  243  A    between atoms: _633  and  _635
REMARK  244  A    between atoms: _635  and  _636
REMARK  245  A    between atoms: _635  and  _638
REMARK  246  A    between atoms: _638  and  _639
REMARK  247  A    between atoms: _644  and  _645
REMARK  248  A    between atoms: _647  and  _649
REMARK  249  A    between atoms: _649  and  _650
REMARK  250  A    between atoms: _649  and  _652
REMARK  251  A    between atoms: _652  and  _653
REMARK  252  A    between atoms: _653  and  _654
REMARK  253  A    between atoms: _654  and  _655
REMARK  254  A    between atoms: _664  and  _666
REMARK  255  A    between atoms: _666  and  _667
REMARK  256  A    between atoms: _666  and  _669
REMARK  257  A    between atoms: _669  and  _670
REMARK  258  A    between atoms: _675  and  _676
REMARK  259  A    between atoms: _678  and  _680
REMARK  260  A    between atoms: _680  and  _681
REMARK  261  A    between atoms: _680  and  _683
REMARK  262  A    between atoms: _683  and  _684
REMARK  263  A    between atoms: _690  and  _692
REMARK  264  A    between atoms: _692  and  _693
REMARK  265  A    between atoms: _692  and  _695
REMARK  266  A    between atoms: _695  and  _696
REMARK  267  A    between atoms: _698  and  _700
REMARK  268  A    between atoms: _700  and  _701
REMARK  269  A    between atoms: _700  and  _703
REMARK  270  A    between atoms: _703  and  _704
REMARK  271  A    between atoms: _710  and  _712
REMARK  272  A    between atoms: _712  and  _713
REMARK  273  A    between atoms: _712  and  _715
REMARK  274  A    between atoms: _715  and  _716
REMARK  275  A    between atoms: _716  and  _717
REMARK                            x       y       z     vdW  Elec       q    Type
REMARK                         _______ _______ _______ _____ _____    ______ ____
ROOT
ATOM      1  CA  PHE A   2      33.358  31.009  46.209  0.00  0.00    +0.153 C 
ENDROOT
BRANCH   1   3
ATOM      2  C   LYS A   1      31.890  30.762  44.212  0.00  0.00    +0.238 C 
ATOM      3  N   PHE A   2      33.040  30.526  44.847  0.00  0.00    -0.297 N 
ATOM      4  H   PHE A   2      33.761  29.965  44.351  0.00  0.00    +0.150 HD
ATOM      5  O   LYS A   1      31.013  31.504  44.645  0.00  0.00    -0.274 OA
BRANCH   2   6
ATOM      6  CA  LYS A   1      31.713  30.061  42.864  0.00  0.00    +0.145 C 
BRANCH   6   7
ATOM      7  N   LYS A   1      30.497  29.249  42.881  0.00  0.00    -0.238 NA
ATOM      8  H   LYS A   1      29.576  29.731  42.914  0.00  0.00    +0.142 HD
ENDBRANCH   6   7
BRANCH   6   9
ATOM      9  CB  LYS A   1      31.672  31.071  41.700  0.00  0.00    +0.026 C 
BRANCH   9  10
ATOM     10  CG  LYS A   1      32.811  32.101  41.675  0.00  0.00    -0.000 C 
BRANCH  10  11
ATOM     11  CD  LYS A   1      34.107  31.493  41.190  0.00  0.00    -0.024 C 
BRANCH  11  12
ATOM     12  CE  LYS A   1      35.250  32.414  41.474  0.00  0.00    -0.086 C 
BRANCH  12  13
ATOM     13  NZ  LYS A   1      36.519  31.785  41.083  0.00  0.00    +0.380 N 
ATOM     14  HZ1 LYS A   1      36.649  30.905  41.622  0.00  0.00    -0.089 HD
ATOM     15  HZ2 LYS A   1      37.304  32.436  41.286  0.00  0.00    -0.089 HD
ATOM     16  HZ3 LYS A   1      36.499  31.570  40.066  0.00  0.00    -0.089 HD
ENDBRANCH  12  13
ENDBRANCH  11  12
ENDBRANCH  10  11
ENDBRANCH   9  10
ENDBRANCH   6   9
ENDBRANCH   2   6
ENDBRANCH   1   3
BRANCH   1  17
ATOM     17  C   PHE A   2      32.833  32.395  46.575  0.00  0.00    +0.241 C 
ATOM     18  O   PHE A   2      32.076  32.547  47.535  0.00  0.00    -0.273 OA
ATOM     19  N   HIS A   3      33.236  33.399  45.807  0.00  0.00    -0.298 N 
ATOM     20  H   HIS A   3      33.747  33.178  44.928  0.00  0.00    +0.150 HD
BRANCH  19  21
ATOM     21  CA  HIS A   3      32.993  34.810  46.143  0.00  0.00    +0.143 C 
BRANCH  21  22
ATOM     22  C   HIS A   3      31.520  35.205  46.269  0.00  0.00    +0.227 C 
ATOM     23  O   HIS A   3      31.207  36.271  46.784  0.00  0.00    -0.286 OA
ENDBRANCH  21  22
BRANCH  21  24
ATOM     24  CB  HIS A   3      33.719  35.708  45.132  0.00  0.00    +0.075 C 
BRANCH  24  25
ATOM     25  CG  HIS A   3      35.192  35.454  45.072  0.00  0.00    +0.082 A 
ATOM     26  CD2 HIS A   3      36.240  36.150  45.576  0.00  0.00    +0.115 A 
ATOM     27  NE2 HIS A   3      37.383  35.467  45.237  0.00  0.00    -0.221 NA
ATOM     28  CE1 HIS A   3      37.049  34.382  44.561  0.00  0.00    +0.199 A 
ATOM     29  ND1 HIS A   3      35.732  34.346  44.452  0.00  0.00    -0.227 NA
ENDBRANCH  24  25
ENDBRANCH  21  24
ENDBRANCH  19  21
ENDBRANCH   1  17
BRANCH   1  30
ATOM     30  CB  PHE A   2      34.876  30.936  46.449  0.00  0.00    +0.055 C 
BRANCH  30  31
ATOM     31  CG  PHE A   2      35.317  31.448  47.796  0.00  0.00    -0.020 A 
ATOM     32  CD2 PHE A   2      35.271  30.628  48.917  0.00  0.00    -0.004 A 
ATOM     33  CE2 PHE A   2      35.684  31.104  50.170  0.00  0.00    -0.000 A 
ATOM     34  CZ  PHE A   2      36.153  32.401  50.297  0.00  0.00    -0.000 A 
ATOM     35  CE1 PHE A   2      36.192  33.227  49.185  0.00  0.00    -0.000 A 
ATOM     36  CD1 PHE A   2      35.781  32.746  47.942  0.00  0.00    -0.004 A 
ENDBRANCH  30  31
ENDBRANCH   1  30
TORSDOF 15
REMARK  Name = ../refined-set-2016/2oc2/2oc2_pocket.pdb
REMARK  275 active torsions:
REMARK  status: ('A' for Active; 'I' for Inactive)
REMARK    1  A    between atoms: _1  and  _3
REMARK    2  A    between atoms: _3  and  _4
REMARK    3  A    between atoms: _3  and  _6
REMARK    4  A    between atoms: _6  and  _7
REMARK    5  A    between atoms: _12  and  _14
REMARK    6  A    between atoms: _14  and  _15
REMARK    7  A    between atoms: _14  and  _17
REMARK    8  A    between atoms: _17  and  _18
REMARK    9  A    between atoms: _23  and  _25
REMARK   10  A    between atoms: _25  and  _26
REMARK   11  A    between atoms: _25  and  _28
REMARK   12  A    between atoms: _28  and  _29
REMARK   13  A    between atoms: _29  and  _30
REMARK   14  A    between atoms: _33  and  _35
REMARK   15  A    between atoms: _35  and  _36
REMARK   16  A    between atoms: _35  and  _38
REMARK   17  A    between atoms: _38  and  _39
REMARK   18  A    between atoms: _44  and  _45
REMARK   19  A    between atoms: _47  and  _49
REMARK   20  A    between atoms: _49  and  _50
REMARK   21  A    between atoms: _49  and  _52
REMARK   22  A    between atoms: _52  and  _53
REMARK   23  A    between atoms: _53  and  _54
REMARK   24  A    between atoms: _57  and  _59
REMARK   25  A    between atoms: _59  and  _60
REMARK   26  A    between atoms: _59  and  _62
REMARK   27  A    between atoms: _62  and  _63
REMARK   28  A    between atoms: _68  and  _70
REMARK   29  A    between atoms: _70  and  _71
REMARK   30  A    between atoms: _70  and  _73
REMARK   31  A    between atoms: _73  and  _74
REMARK   32  A    between atoms: _84  and  _86
REMARK   33  A    between atoms: _86  and  _87
REMARK   34  A    between atoms: _86  and  _89
REMARK   35  A    between atoms: _89  and  _90
REMARK   36  A    between atoms: _90  and  _91
REMARK   37  A    between atoms: _96  and  _98
REMARK   38  A    between atoms: _98  and  _99
REMARK   39  A    between atoms: _98  and  _101
REMARK   40  A    between atoms: _101  and  _102
REMARK   41  A    between atoms: _105  and  _107
REMARK   42  A    between atoms: _107  and  _108
REMARK   43  A    between atoms: _107  and  _110
REMARK   44  A    between atoms: _113  and  _115
REMARK   45  A    between atoms: _115  and  _116
REMARK   46  A    between atoms: _115  and  _118
REMARK   47  A    between atoms: _118  and  _119
REMARK   48  A    between atoms: _119  and  _247
REMARK   49  A    between atoms: _120  and  _122
REMARK   50  A    between atoms: _122  and  _123
REMARK   51  A    between atoms: _122  and  _125
REMARK   52  A    between atoms: _125  and  _126
REMARK   53  A    between atoms: _131  and  _133
REMARK   54  A    between atoms: _133  and  _134
REMARK   55  A    between atoms: _137  and  _139
REMARK   56  A    between atoms: _139  and  _140
REMARK   57  A    between atoms: _139  and  _142
REMARK   58  A    between atoms: _142  and  _143
REMARK   59  A    between atoms: _145  and  _147
REMARK   60  A    between atoms: _147  and  _148
REMARK   61  A    between atoms: _151  and  _153
REMARK   62  A    between atoms: _153  and  _154
REMARK   63  A    between atoms: _153  and  _156
REMARK   64  A    between atoms: _156  and  _157
REMARK   65  A    between atoms: _167  and  _169
REMARK   66  A    between atoms: _169  and  _170
REMARK   67  A    between atoms: _169  and  _172
REMARK   68  A    between atoms: _172  and  _173
REMARK   69  A    between atoms: _176  and  _178
REMARK   70  A    between atoms: _178  and  _179
REMARK   71  A    between atoms: _178  and  _181
REMARK   72  A    between atoms: _181  and  _182
REMARK   73  A    between atoms: _187  and  _188
REMARK   74  A    between atoms: _190  and  _192
REMARK   75  A    between atoms: _192  and  _193
REMARK   76  A    between atoms: _192  and  _195
REMARK   77  A    between atoms: _195  and  _196
REMARK   78  A    between atoms: _196  and  _197
REMARK   79  A    between atoms: _197  and  _198
REMARK   80  A    between atoms: _207  and  _209
REMARK   81  A    between atoms: _209  and  _210
REMARK   82  A    between atoms: _209  and  _212
REMARK   83  A    between atoms: _212  and  _213
REMARK   84  A    between atoms: _216  and  _218
REMARK   85  A    between atoms: _218  and  _219
REMARK   86  A    between atoms: _218  and  _221
REMARK   87  A    between atoms: _221  and  _222
REMARK   88  A    between atoms: _222  and  _223
REMARK   89  A    between atoms: _223  and  _224
REMARK   90  A    between atoms: _224  and  _225
REMARK   91  A    between atoms: _229  and  _231
REMARK   92  A    between atoms: _231  and  _232
REMARK   93  A    between atoms: _231  and  _234
REMARK   94  A    between atoms: _234  and  _235
REMARK   95  A    between atoms: _235  and  _236
REMARK   96  A    between atoms: _241  and  _243
REMARK   97  A    between atoms: _243  and  _244
REMARK   98  A    between atoms: _243  and  _246
REMARK   99  A    between atoms: _246  and  _247
REMARK  100  A    between atoms: _248  and  _250
REMARK  101  A    between atoms: _250  and  _251
REMARK  102  A    between atoms: _250  and  _253
REMARK  103  A    between atoms: _253  and  _254
REMARK  104  A    between atoms: _254  and  _255
REMARK  105  A    between atoms: _258  and  _260
REMARK  106  A    between atoms: _260  and  _261
REMARK  107  A    between atoms: _260  and  _263
REMARK  108  A    between atoms: _263  and  _264
REMARK  109  A    between atoms: _267  and  _269
REMARK  110  A    between atoms: _269  and  _270
REMARK  111  A    between atoms: _269  and  _272
REMARK  112  A    between atoms: _275  and  _277
REMARK  113  A    between atoms: _277  and  _278
REMARK  114  A    between atoms: _277  and  _280
REMARK  115  A    between atoms: _283  and  _285
REMARK  116  A    between atoms: _285  and  _286
REMARK  117  A    between atoms: _289  and  _291
REMARK  118  A    between atoms: _291  and  _292
REMARK  119  A    between atoms: _291  and  _294
REMARK  120  A    between atoms: _294  and  _295
REMARK  121  A    between atoms: _300  and  _302
REMARK  122  A    between atoms: _313  and  _316
REMARK  123  A    between atoms: _316  and  _317
REMARK  124  A    between atoms: _317  and  _318
REMARK  125  A    between atoms: _323  and  _326
REMARK  126  A    between atoms: _326  and  _327
REMARK  127  A    between atoms: _327  and  _328
REMARK  128  A    between atoms: _337  and  _338
REMARK  129  A    between atoms: _346  and  _348
REMARK  130  A    between atoms: _348  and  _349
REMARK  131  A    between atoms: _348  and  _351
REMARK  132  A    between atoms: _351  and  _352
REMARK  133  A    between atoms: _355  and  _357
REMARK  134  A    between atoms: _357  and  _358
REMARK  135  A    between atoms: _357  and  _360
REMARK  136  A    between atoms: _360  and  _361
REMARK  137  A    between atoms: _366  and  _367
REMARK  138  A    between atoms: _369  and  _371
REMARK  139  A    between atoms: _371  and  _372
REMARK  140  A    between atoms: _371  and  _374
REMARK  141  A    between atoms: _374  and  _375
REMARK  142  A    between atoms: _381  and  _383
REMARK  143  A    between atoms: _383  and  _384
REMARK  144  A    between atoms: _383  and  _386
REMARK  145  A    between atoms: _386  and  _387
REMARK  146  A    between atoms: _392  and  _393
REMARK  147  A    between atoms: _395  and  _397
REMARK  148  A    between atoms: _397  and  _398
REMARK  149  A    between atoms: _397  and  _400
REMARK  150  A    between atoms: _400  and  _401
REMARK  151  A    between atoms: _401  and  _402
REMARK  152  A    between atoms: _402  and  _403
REMARK  153  A    between atoms: _412  and  _414
REMARK  154  A    between atoms: _414  and  _415
REMARK  155  A    between atoms: _414  and  _417
REMARK  156  A    between atoms: _417  and  _418
REMARK  157  A    between atoms: _418  and  _419
REMARK  158  A    between atoms: _422  and  _424
REMARK  159  A    between atoms: _424  and  _425
REMARK  160  A    between atoms: _427  and  _429
REMARK  161  A    between atoms: _429  and  _430
REMARK  162  A    between atoms: _429  and  _432
REMARK  163  A    between atoms: _432  and  _433
REMARK  164  A    between atoms: _439  and  _440
REMARK  165  A    between atoms: _445  and  _447
REMARK  166  A    between atoms: _447  and  _448
REMARK  167  A    between atoms: _447  and  _450
REMARK  168  A    between atoms: _450  and  _451
REMARK  169  A    between atoms: _457  and  _459
REMARK  170  A    between atoms: _459  and  _460
REMARK  171  A    between atoms: _459  and  _462
REMARK  172  A    between atoms: _462  and  _463
REMARK  173  A    between atoms: _468  and  _470
REMARK  174  A    between atoms: _470  and  _471
REMARK  175  A    between atoms: _470  and  _473
REMARK  176  A    between atoms: _473  and  _474
REMARK  177  A    between atoms: _474  and  _475
REMARK  178  A    between atoms: _475  and  _476
REMARK  179  A    between atoms: _476  and  ZN_722
REMARK  180  A    between atoms: _478  and  _480
REMARK  181  A    between atoms: _480  and  _481
REMARK  182  A    between atoms: _484  and  _486
REMARK  183  A    between atoms: _486  and  _487
REMARK  184  A    between atoms: _489  and  _491
REMARK  185  A    between atoms: _491  and  _492
REMARK  186  A    between atoms: _491  and  _494
REMARK  187  A    between atoms: _494  and  _495
REMARK  188  A    between atoms: _498  and  _500
REMARK  189  A    between atoms: _500  and  _501
REMARK  190  A    between atoms: _504  and  _506
REMARK  191  A    between atoms: _506  and  _507
REMARK  192  A    between atoms: _506  and  _509
REMARK  193  A    between atoms: _509  and  _510
REMARK  194  A    between atoms: _513  and  _515
REMARK  195  A    between atoms: _515  and  _516
REMARK  196  A    between atoms: _515  and  _518
REMARK  197  A    between atoms: _518  and  _519
REMARK  198  A    between atoms: _519  and  _520
REMARK  199  A    between atoms: _520  and  _521
REMARK  200  A    between atoms: _521  and  _522
REMARK  201  A    between atoms: _526  and  _528
REMARK  202  A    between atoms: _528  and  _529
REMARK  203  A    between atoms: _528  and  _531
REMARK  204  A    between atoms: _531  and  _532
REMARK  205  A    between atoms: _538  and  _540
REMARK  206  A    between atoms: _540  and  _541
REMARK  207  A    between atoms: _540  and  _543
REMARK  208  A    between atoms: _543  and  _544
REMARK  209  A    between atoms: _550  and  _552
REMARK  210  A    between atoms: _552  and  _553
REMARK  211  A    between atoms: _552  and  _555
REMARK  212  A    between atoms: _555  and  _556
REMARK  213  A    between atoms: _558  and  _560
REMARK  214  A    between atoms: _560  and  _561
REMARK  215  A    between atoms: _560  and  _563
REMARK  216  A    between atoms: _566  and  _568
REMARK  217  A    between atoms: _568  and  _569
REMARK  218  A    between atoms: _568  and  _571
REMARK  219  A    between atoms: _571  and  _572
REMARK  220  A    between atoms: _572  and  _573
REMARK  221  A    between atoms: _573  and  _574
REMARK  222  A    between atoms: _574  and  _575
REMARK  223  A    between atoms: _579  and  _581
REMARK  224  A    between atoms: _581  and  _582
REMARK  225  A    between atoms: _581  and  _584
REMARK  226  A    between atoms: _584  and  _585
REMARK  227  A    between atoms: _591  and  _593
REMARK  228  A    between atoms: _593  and  _594
REMARK  229  A    between atoms: _593  and  _596
REMARK  230  A    between atoms: _596  and  _597
REMARK  231  A    between atoms: _602  and  _604
REMARK  232  A    between atoms: _604  and  _605
REMARK  233  A    between atoms: _604  and  _607
REMARK  234  A    between atoms: _607  and  _608
REMARK  235  A    between atoms: _610  and  _612
REMARK  236  A    between atoms: _612  and  _613
REMARK  237  A    between atoms: _612  and  _615
REMARK  238  A    between atoms: _615  and  _616
REMARK  239  A    between atoms: _618  and  _620
REMARK  240  A    between atoms: _620  and  _621
REMARK  241  A    between atoms: _620  and  _623
REMARK  242  A    between atoms: _627  and  _628
REMARK  243  A    between atoms: _633  and  _635
REMARK  244  A    between atoms: _635  and  _636
REMARK  245  A    between atoms: _635  and  _638
REMARK  246  A    between atoms: _638  and  _639
REMARK  247  A    between atoms: _644  and  _645
REMARK  248  A    between atoms: _647  and  _649
REMARK  249  A    between atoms: _649  and  _650
REMARK  250  A    between atoms: _649  and  _652
REMARK  251  A    between atoms: _652  and  _653
REMARK  252  A    between atoms: _653  and  _654
REMARK  253  A    between atoms: _654  and  _655
REMARK  254  A    between atoms: _664  and  _666
REMARK  255  A    between atoms: _666  and  _667
REMARK  256  A    between atoms: _666  and  _669
REMARK  257  A    between atoms: _669  and  _670
REMARK  258  A    between atoms: _675  and  _676
REMARK  259  A    between atoms: _678  and  _680
REMARK  260  A    between atoms: _680  and  _681
REMARK  261  A    between atoms: _680  and  _683
REMARK  262  A    between atoms: _683  and  _684
REMARK  263  A    between atoms: _690  and  _692
REMARK  264  A    between atoms: _692  and  _693
REMARK  265  A    between atoms: _692  and  _695
REMARK  266  A    between atoms: _695  and  _696
REMARK  267  A    between atoms: _698  and  _700
REMARK  268  A    between atoms: _700  and  _701
REMARK  269  A    between atoms: _700  and  _703
REMARK  270  A    between atoms: _703  and  _704
REMARK  271  A    between atoms: _710  and  _712
REMARK  272  A    between atoms: _712  and  _713
REMARK  273  A    between atoms: _712  and  _715
REMARK  274  A    between atoms: _715  and  _716
REMARK  275  A    between atoms: _716  and  _717
REMARK                            x       y       z     vdW  Elec       q    Type
REMARK                         _______ _______ _______ _____ _____    ______ ____
ROOT
ATOM      1  C   VAL A   3      33.373  39.503  47.019  0.00  0.00    +0.244 C 
ATOM      2  N   PRO A   4      33.552  40.830  46.931  0.00  0.00    -0.272 N 
ATOM      3  CD  PRO A   4      33.815  41.783  48.022  0.00  0.00    +0.094 C 
ATOM      4  CG  PRO A   4      33.410  43.091  47.421  0.00  0.00    +0.024 C 
ATOM      5  CB  PRO A   4      33.736  42.964  45.962  0.00  0.00    +0.031 C 
ATOM      6  CA  PRO A   4      33.470  41.494  45.625  0.00  0.00    +0.152 C 
ATOM      7  O   VAL A   3      33.051  38.821  46.054  0.00  0.00    -0.273 OA
ENDROOT
BRANCH   6   8
ATOM      8  C   PRO A   4      34.514  40.966  44.631  0.00  0.00    +0.241 C 
ATOM      9  O   PRO A   4      35.609  40.548  45.025  0.00  0.00    -0.273 OA
ATOM     10  N   TYR A   5      34.180  41.000  43.349  0.00  0.00    -0.298 N 
ATOM     11  H   TYR A   5      33.307  41.484  43.057  0.00  0.00    +0.150 HD
BRANCH  10  12
ATOM     12  CA  TYR A   5      35.019  40.370  42.349  0.00  0.00    +0.141 C 
BRANCH  12  13
ATOM     13  C   TYR A   5      35.724  41.332  41.368  0.00  0.00    +0.227 C 
ATOM     14  O   TYR A   5      36.798  41.000  40.851  0.00  0.00    -0.286 OA
ENDBRANCH  12  13
BRANCH  12  15
ATOM     15  CB  TYR A   5      34.236  39.282  41.599  0.00  0.00    +0.054 C 
BRANCH  15  16
ATOM     16  CG  TYR A   5      35.113  38.136  41.163  0.00  0.00    -0.020 A 
ATOM     17  CD2 TYR A   5      35.369  37.065  42.018  0.00  0.00    -0.001 A 
ATOM     18  CE2 TYR A   5      36.196  36.002  41.617  0.00  0.00    +0.036 A 
ATOM     19  CZ  TYR A   5      36.779  36.032  40.362  0.00  0.00    +0.134 A 
ATOM     20  CE1 TYR A   5      36.544  37.093  39.501  0.00  0.00    +0.036 A 
ATOM     21  CD1 TYR A   5      35.717  38.136  39.903  0.00  0.00    -0.001 A 
BRANCH  19  22
ATOM     22  OH  TYR A   5      37.597  35.011  39.953  0.00  0.00    -0.506 OA
ATOM     23  HH  TYR A   5      37.665  34.335  40.673  0.00  0.00    +0.292 HD
ENDBRANCH  19  22
ENDBRANCH  15  16
ENDBRANCH  12  15
ENDBRANCH  10  12
ENDBRANCH   6   8
BRANCH   1  24
ATOM     24  CA  VAL A   3      33.554  38.854  48.389  0.00  0.00    +0.149 C 
BRANCH  24  27
ATOM     25  C   SER A   2      31.367  38.608  49.472  0.00  0.00    +0.243 C 
ATOM     26  O   SER A   2      31.401  39.739  49.970  0.00  0.00    -0.273 OA
ATOM     27  N   VAL A   3      32.335  38.121  48.701  0.00  0.00    -0.297 N 
ATOM     28  H   VAL A   3      32.215  37.169  48.301  0.00  0.00    +0.150 HD
BRANCH  25  29
ATOM     29  CA  SER A   2      30.150  37.686  49.686  0.00  0.00    +0.178 C 
BRANCH  29  32
ATOM     30  C   SER A   1      31.205  35.685  50.753  0.00  0.00    +0.241 C 
ATOM     31  O   SER A   1      31.822  36.307  51.628  0.00  0.00    -0.274 OA
ATOM     32  N   SER A   2      30.451  36.245  49.794  0.00  0.00    -0.295 N 
ATOM     33  H   SER A   2      30.048  35.615  49.071  0.00  0.00    +0.150 HD
BRANCH  30  34
ATOM     34  CA  SER A   1      31.277  34.178  50.716  0.00  0.00    +0.174 C 
BRANCH  34  35
ATOM     35  N   SER A   1      30.317  33.593  49.778  0.00  0.00    -0.236 NA
ATOM     36  H   SER A   1      30.633  33.379  48.811  0.00  0.00    +0.142 HD
ENDBRANCH  34  35
BRANCH  34  37
ATOM     37  CB  SER A   1      32.693  33.747  50.374  0.00  0.00    +0.163 C 
BRANCH  37  38
ATOM     38  OG  SER A   1      32.773  32.341  50.420  0.00  0.00    -0.380 OA
ATOM     39  H   SER A   1      32.140  31.954  49.765  0.00  0.00    +0.211 HD
ENDBRANCH  37  38
ENDBRANCH  34  37
ENDBRANCH  30  34
ENDBRANCH  29  32
BRANCH  29  40
ATOM     40  CB  SER A   2      29.307  38.170  50.868  0.00  0.00    +0.166 C 
BRANCH  40  41
ATOM     41  OG  SER A   2      28.830  39.482  50.619  0.00  0.00    -0.380 OA
ATOM     42  H   SER A   2      28.273  39.480  49.801  0.00  0.00    +0.211 HD
ENDBRANCH  40  41
ENDBRANCH  29  40
ENDBRANCH  25  29
ENDBRANCH  24  27
BRANCH  24  43
ATOM     43  CB  VAL A   3      34.786  37.914  48.379  0.00  0.00    +0.027 C 
ATOM     44  CG2 VAL A   3      34.895  37.178  49.693  0.00  0.00    +0.002 C 
ATOM     45  CG1 VAL A   3      36.092  38.677  48.062  0.00  0.00    +0.002 C 
ENDBRANCH  24  43
ENDBRANCH   1  24
TORSDOF 17
REMARK  Name = ../refined-set-2016/2oc2/2oc2_pocket.pdb
REMARK  275 active torsions:
REMARK  status: ('A' for Active; 'I' for Inactive)
REMARK    1  A    between atoms: _1  and  _3
REMARK    2  A    between atoms: _3  and  _4
REMARK    3  A    between atoms: _3  and  _6
REMARK    4  A    between atoms: _6  and  _7
REMARK    5  A    between atoms: _12  and  _14
REMARK    6  A    between atoms: _14  and  _15
REMARK    7  A    between atoms: _14  and  _17
REMARK    8  A    between atoms: _17  and  _18
REMARK    9  A    between atoms: _23  and  _25
REMARK   10  A    between atoms: _25  and  _26
REMARK   11  A    between atoms: _25  and  _28
REMARK   12  A    between atoms: _28  and  _29
REMARK   13  A    between atoms: _29  and  _30
REMARK   14  A    between atoms: _33  and  _35
REMARK   15  A    between atoms: _35  and  _36
REMARK   16  A    between atoms: _35  and  _38
REMARK   17  A    between atoms: _38  and  _39
REMARK   18  A    between atoms: _44  and  _45
REMARK   19  A    between atoms: _47  and  _49
REMARK   20  A    between atoms: _49  and  _50
REMARK   21  A    between atoms: _49  and  _52
REMARK   22  A    between atoms: _52  and  _53
REMARK   23  A    between atoms: _53  and  _54
REMARK   24  A    between atoms: _57  and  _59
REMARK   25  A    between atoms: _59  and  _60
REMARK   26  A    between atoms: _59  and  _62
REMARK   27  A    between atoms: _62  and  _63
REMARK   28  A    between atoms: _68  and  _70
REMARK   29  A    between atoms: _70  and  _71
REMARK   30  A    between atoms: _70  and  _73
REMARK   31  A    between atoms: _73  and  _74
REMARK   32  A    between atoms: _84  and  _86
REMARK   33  A    between atoms: _86  and  _87
REMARK   34  A    between atoms: _86  and  _89
REMARK   35  A    between atoms: _89  and  _90
REMARK   36  A    between atoms: _90  and  _91
REMARK   37  A    between atoms: _96  and  _98
REMARK   38  A    between atoms: _98  and  _99
REMARK   39  A    between atoms: _98  and  _101
REMARK   40  A    between atoms: _101  and  _102
REMARK   41  A    between atoms: _105  and  _107
REMARK   42  A    between atoms: _107  and  _108
REMARK   43  A    between atoms: _107  and  _110
REMARK   44  A    between atoms: _113  and  _115
REMARK   45  A    between atoms: _115  and  _116
REMARK   46  A    between atoms: _115  and  _118
REMARK   47  A    between atoms: _118  and  _119
REMARK   48  A    between atoms: _119  and  _247
REMARK   49  A    between atoms: _120  and  _122
REMARK   50  A    between atoms: _122  and  _123
REMARK   51  A    between atoms: _122  and  _125
REMARK   52  A    between atoms: _125  and  _126
REMARK   53  A    between atoms: _131  and  _133
REMARK   54  A    between atoms: _133  and  _134
REMARK   55  A    between atoms: _137  and  _139
REMARK   56  A    between atoms: _139  and  _140
REMARK   57  A    between atoms: _139  and  _142
REMARK   58  A    between atoms: _142  and  _143
REMARK   59  A    between atoms: _145  and  _147
REMARK   60  A    between atoms: _147  and  _148
REMARK   61  A    between atoms: _151  and  _153
REMARK   62  A    between atoms: _153  and  _154
REMARK   63  A    between atoms: _153  and  _156
REMARK   64  A    between atoms: _156  and  _157
REMARK   65  A    between atoms: _167  and  _169
REMARK   66  A    between atoms: _169  and  _170
REMARK   67  A    between atoms: _169  and  _172
REMARK   68  A    between atoms: _172  and  _173
REMARK   69  A    between atoms: _176  and  _178
REMARK   70  A    between atoms: _178  and  _179
REMARK   71  A    between atoms: _178  and  _181
REMARK   72  A    between atoms: _181  and  _182
REMARK   73  A    between atoms: _187  and  _188
REMARK   74  A    between atoms: _190  and  _192
REMARK   75  A    between atoms: _192  and  _193
REMARK   76  A    between atoms: _192  and  _195
REMARK   77  A    between atoms: _195  and  _196
REMARK   78  A    between atoms: _196  and  _197
REMARK   79  A    between atoms: _197  and  _198
REMARK   80  A    between atoms: _207  and  _209
REMARK   81  A    between atoms: _209  and  _210
REMARK   82  A    between atoms: _209  and  _212
REMARK   83  A    between atoms: _212  and  _213
REMARK   84  A    between atoms: _216  and  _218
REMARK   85  A    between atoms: _218  and  _219
REMARK   86  A    between atoms: _218  and  _221
REMARK   87  A    between atoms: _221  and  _222
REMARK   88  A    between atoms: _222  and  _223
REMARK   89  A    between atoms: _223  and  _224
REMARK   90  A    between atoms: _224  and  _225
REMARK   91  A    between atoms: _229  and  _231
REMARK   92  A    between atoms: _231  and  _232
REMARK   93  A    between atoms: _231  and  _234
REMARK   94  A    between atoms: _234  and  _235
REMARK   95  A    between atoms: _235  and  _236
REMARK   96  A    between atoms: _241  and  _243
REMARK   97  A    between atoms: _243  and  _244
REMARK   98  A    between atoms: _243  and  _246
REMARK   99  A    between atoms: _246  and  _247
REMARK  100  A    between atoms: _248  and  _250
REMARK  101  A    between atoms: _250  and  _251
REMARK  102  A    between atoms: _250  and  _253
REMARK  103  A    between atoms: _253  and  _254
REMARK  104  A    between atoms: _254  and  _255
REMARK  105  A    between atoms: _258  and  _260
REMARK  106  A    between atoms: _260  and  _261
REMARK  107  A    between atoms: _260  and  _263
REMARK  108  A    between atoms: _263  and  _264
REMARK  109  A    between atoms: _267  and  _269
REMARK  110  A    between atoms: _269  and  _270
REMARK  111  A    between atoms: _269  and  _272
REMARK  112  A    between atoms: _275  and  _277
REMARK  113  A    between atoms: _277  and  _278
REMARK  114  A    between atoms: _277  and  _280
REMARK  115  A    between atoms: _283  and  _285
REMARK  116  A    between atoms: _285  and  _286
REMARK  117  A    between atoms: _289  and  _291
REMARK  118  A    between atoms: _291  and  _292
REMARK  119  A    between atoms: _291  and  _294
REMARK  120  A    between atoms: _294  and  _295
REMARK  121  A    between atoms: _300  and  _302
REMARK  122  A    between atoms: _313  and  _316
REMARK  123  A    between atoms: _316  and  _317
REMARK  124  A    between atoms: _317  and  _318
REMARK  125  A    between atoms: _323  and  _326
REMARK  126  A    between atoms: _326  and  _327
REMARK  127  A    between atoms: _327  and  _328
REMARK  128  A    between atoms: _337  and  _338
REMARK  129  A    between atoms: _346  and  _348
REMARK  130  A    between atoms: _348  and  _349
REMARK  131  A    between atoms: _348  and  _351
REMARK  132  A    between atoms: _351  and  _352
REMARK  133  A    between atoms: _355  and  _357
REMARK  134  A    between atoms: _357  and  _358
REMARK  135  A    between atoms: _357  and  _360
REMARK  136  A    between atoms: _360  and  _361
REMARK  137  A    between atoms: _366  and  _367
REMARK  138  A    between atoms: _369  and  _371
REMARK  139  A    between atoms: _371  and  _372
REMARK  140  A    between atoms: _371  and  _374
REMARK  141  A    between atoms: _374  and  _375
REMARK  142  A    between atoms: _381  and  _383
REMARK  143  A    between atoms: _383  and  _384
REMARK  144  A    between atoms: _383  and  _386
REMARK  145  A    between atoms: _386  and  _387
REMARK  146  A    between atoms: _392  and  _393
REMARK  147  A    between atoms: _395  and  _397
REMARK  148  A    between atoms: _397  and  _398
REMARK  149  A    between atoms: _397  and  _400
REMARK  150  A    between atoms: _400  and  _401
REMARK  151  A    between atoms: _401  and  _402
REMARK  152  A    between atoms: _402  and  _403
REMARK  153  A    between atoms: _412  and  _414
REMARK  154  A    between atoms: _414  and  _415
REMARK  155  A    between atoms: _414  and  _417
REMARK  156  A    between atoms: _417  and  _418
REMARK  157  A    between atoms: _418  and  _419
REMARK  158  A    between atoms: _422  and  _424
REMARK  159  A    between atoms: _424  and  _425
REMARK  160  A    between atoms: _427  and  _429
REMARK  161  A    between atoms: _429  and  _430
REMARK  162  A    between atoms: _429  and  _432
REMARK  163  A    between atoms: _432  and  _433
REMARK  164  A    between atoms: _439  and  _440
REMARK  165  A    between atoms: _445  and  _447
REMARK  166  A    between atoms: _447  and  _448
REMARK  167  A    between atoms: _447  and  _450
REMARK  168  A    between atoms: _450  and  _451
REMARK  169  A    between atoms: _457  and  _459
REMARK  170  A    between atoms: _459  and  _460
REMARK  171  A    between atoms: _459  and  _462
REMARK  172  A    between atoms: _462  and  _463
REMARK  173  A    between atoms: _468  and  _470
REMARK  174  A    between atoms: _470  and  _471
REMARK  175  A    between atoms: _470  and  _473
REMARK  176  A    between atoms: _473  and  _474
REMARK  177  A    between atoms: _474  and  _475
REMARK  178  A    between atoms: _475  and  _476
REMARK  179  A    between atoms: _476  and  ZN_722
REMARK  180  A    between atoms: _478  and  _480
REMARK  181  A    between atoms: _480  and  _481
REMARK  182  A    between atoms: _484  and  _486
REMARK  183  A    between atoms: _486  and  _487
REMARK  184  A    between atoms: _489  and  _491
REMARK  185  A    between atoms: _491  and  _492
REMARK  186  A    between atoms: _491  and  _494
REMARK  187  A    between atoms: _494  and  _495
REMARK  188  A    between atoms: _498  and  _500
REMARK  189  A    between atoms: _500  and  _501
REMARK  190  A    between atoms: _504  and  _506
REMARK  191  A    between atoms: _506  and  _507
REMARK  192  A    between atoms: _506  and  _509
REMARK  193  A    between atoms: _509  and  _510
REMARK  194  A    between atoms: _513  and  _515
REMARK  195  A    between atoms: _515  and  _516
REMARK  196  A    between atoms: _515  and  _518
REMARK  197  A    between atoms: _518  and  _519
REMARK  198  A    between atoms: _519  and  _520
REMARK  199  A    between atoms: _520  and  _521
REMARK  200  A    between atoms: _521  and  _522
REMARK  201  A    between atoms: _526  and  _528
REMARK  202  A    between atoms: _528  and  _529
REMARK  203  A    between atoms: _528  and  _531
REMARK  204  A    between atoms: _531  and  _532
REMARK  205  A    between atoms: _538  and  _540
REMARK  206  A    between atoms: _540  and  _541
REMARK  207  A    between atoms: _540  and  _543
REMARK  208  A    between atoms: _543  and  _544
REMARK  209  A    between atoms: _550  and  _552
REMARK  210  A    between atoms: _552  and  _553
REMARK  211  A    between atoms: _552  and  _555
REMARK  212  A    between atoms: _555  and  _556
REMARK  213  A    between atoms: _558  and  _560
REMARK  214  A    between atoms: _560  and  _561
REMARK  215  A    between atoms: _560  and  _563
REMARK  216  A    between atoms: _566  and  _568
REMARK  217  A    between atoms: _568  and  _569
REMARK  218  A    between atoms: _568  and  _571
REMARK  219  A    between atoms: _571  and  _572
REMARK  220  A    between atoms: _572  and  _573
REMARK  221  A    between atoms: _573  and  _574
REMARK  222  A    between atoms: _574  and  _575
REMARK  223  A    between atoms: _579  and  _581
REMARK  224  A    between atoms: _581  and  _582
REMARK  225  A    between atoms: _581  and  _584
REMARK  226  A    between atoms: _584  and  _585
REMARK  227  A    between atoms: _591  and  _593
REMARK  228  A    between atoms: _593  and  _594
REMARK  229  A    between atoms: _593  and  _596
REMARK  230  A    between atoms: _596  and  _597
REMARK  231  A    between atoms: _602  and  _604
REMARK  232  A    between atoms: _604  and  _605
REMARK  233  A    between atoms: _604  and  _607
REMARK  234  A    between atoms: _607  and  _608
REMARK  235  A    between atoms: _610  and  _612
REMARK  236  A    between atoms: _612  and  _613
REMARK  237  A    between atoms: _612  and  _615
REMARK  238  A    between atoms: _615  and  _616
REMARK  239  A    between atoms: _618  and  _620
REMARK  240  A    between atoms: _620  and  _621
REMARK  241  A    between atoms: _620  and  _623
REMARK  242  A    between atoms: _627  and  _628
REMARK  243  A    between atoms: _633  and  _635
REMARK  244  A    between atoms: _635  and  _636
REMARK  245  A    between atoms: _635  and  _638
REMARK  246  A    between atoms: _638  and  _639
REMARK  247  A    between atoms: _644  and  _645
REMARK  248  A    between atoms: _647  and  _649
REMARK  249  A    between atoms: _649  and  _650
REMARK  250  A    between atoms: _649  and  _652
REMARK  251  A    between atoms: _652  and  _653
REMARK  252  A    between atoms: _653  and  _654
REMARK  253  A    between atoms: _654  and  _655
REMARK  254  A    between atoms: _664  and  _666
REMARK  255  A    between atoms: _666  and  _667
REMARK  256  A    between atoms: _666  and  _669
REMARK  257  A    between atoms: _669  and  _670
REMARK  258  A    between atoms: _675  and  _676
REMARK  259  A    between atoms: _678  and  _680
REMARK  260  A    between atoms: _680  and  _681
REMARK  261  A    between atoms: _680  and  _683
REMARK  262  A    between atoms: _683  and  _684
REMARK  263  A    between atoms: _690  and  _692
REMARK  264  A    between atoms: _692  and  _693
REMARK  265  A    between atoms: _692  and  _695
REMARK  266  A    between atoms: _695  and  _696
REMARK  267  A    between atoms: _698  and  _700
REMARK  268  A    between atoms: _700  and  _701
REMARK  269  A    between atoms: _700  and  _703
REMARK  270  A    between atoms: _703  and  _704
REMARK  271  A    between atoms: _710  and  _712
REMARK  272  A    between atoms: _712  and  _713
REMARK  273  A    between atoms: _712  and  _715
REMARK  274  A    between atoms: _715  and  _716
REMARK  275  A    between atoms: _716  and  _717
REMARK                            x       y       z     vdW  Elec       q    Type
REMARK                         _______ _______ _______ _____ _____    ______ ____
ROOT
ATOM      1  CA  TYR A   2      40.401  40.931  40.291  0.00  0.00    +0.153 C 
ENDROOT
BRANCH   1   4
ATOM      2  C   ARG A   1      39.943  43.024  41.531  0.00  0.00    +0.238 C 
ATOM      3  O   ARG A   1      41.051  43.517  41.290  0.00  0.00    -0.274 OA
ATOM      4  N   TYR A   2      39.555  41.824  41.091  0.00  0.00    -0.297 N 
ATOM      5  H   TYR A   2      38.595  41.503  41.330  0.00  0.00    +0.150 HD
BRANCH   2   6
ATOM      6  CA  ARG A   1      38.911  43.812  42.356  0.00  0.00    +0.145 C 
BRANCH   6   7
ATOM      7  N   ARG A   1      37.530  43.653  41.863  0.00  0.00    -0.238 NA
ATOM      8  H   ARG A   1      36.790  43.385  42.543  0.00  0.00    +0.142 HD
ENDBRANCH   6   7
BRANCH   6   9
ATOM      9  CB  ARG A   1      39.020  43.467  43.855  0.00  0.00    +0.030 C 
BRANCH   9  10
ATOM     10  CG  ARG A   1      38.574  42.059  44.265  0.00  0.00    +0.045 C 
BRANCH  10  11
ATOM     11  CD  ARG A   1      38.672  41.817  45.785  0.00  0.00    +0.174 C 
BRANCH  11  12
ATOM     12  NE  ARG A   1      37.911  42.808  46.536  0.00  0.00    -0.265 N 
ATOM     13  CZ  ARG A   1      37.643  42.773  47.840  0.00  0.00    +0.342 C 
ATOM     14  NH2 ARG A   1      38.060  41.779  48.618  0.00  0.00    -0.292 N 
ATOM     15 HH21 ARG A   1      37.833  41.783  49.633  0.00  0.00    +0.255 HD
ATOM     16 HH22 ARG A   1      38.613  40.998  48.212  0.00  0.00    +0.255 HD
ATOM     17  NH1 ARG A   1      36.937  43.756  48.372  0.00  0.00    -0.292 N 
ATOM     18 HH11 ARG A   1      36.717  43.747  49.388  0.00  0.00    +0.255 HD
ATOM     19 HH12 ARG A   1      36.602  44.538  47.774  0.00  0.00    +0.255 HD
ATOM     20  HE  ARG A   1      37.542  43.621  46.002  0.00  0.00    +0.259 HD
ENDBRANCH  11  12
ENDBRANCH  10  11
ENDBRANCH   9  10
ENDBRANCH   6   9
ENDBRANCH   2   6
ENDBRANCH   1   4
BRANCH   1  21
ATOM     21  C   TYR A   2      40.506  41.322  38.814  0.00  0.00    +0.241 C 
ATOM     22  N   PHE A   3      39.494  42.016  38.301  0.00  0.00    -0.298 N 
ATOM     23  H   PHE A   3      38.656  42.196  38.889  0.00  0.00    +0.150 HD
ATOM     24  O   TYR A   2      41.492  40.986  38.150  0.00  0.00    -0.273 OA
BRANCH  22  25
ATOM     25  CA  PHE A   3      39.526  42.534  36.932  0.00  0.00    +0.141 C 
BRANCH  25  26
ATOM     26  C   PHE A   3      40.479  43.712  36.844  0.00  0.00    +0.227 C 
ATOM     27  O   PHE A   3      41.213  43.868  35.866  0.00  0.00    -0.286 OA
ENDBRANCH  25  26
BRANCH  25  28
ATOM     28  CB  PHE A   3      38.117  42.951  36.476  0.00  0.00    +0.054 C 
BRANCH  28  29
ATOM     29  CG  PHE A   3      38.098  43.766  35.206  0.00  0.00    -0.020 A 
ATOM     30  CD2 PHE A   3      38.181  45.154  35.251  0.00  0.00    -0.004 A 
ATOM     31  CE2 PHE A   3      38.176  45.910  34.076  0.00  0.00    -0.000 A 
ATOM     32  CZ  PHE A   3      38.067  45.274  32.840  0.00  0.00    -0.000 A 
ATOM     33  CE1 PHE A   3      37.977  43.886  32.787  0.00  0.00    -0.000 A 
ATOM     34  CD1 PHE A   3      37.996  43.143  33.965  0.00  0.00    -0.004 A 
ENDBRANCH  28  29
ENDBRANCH  25  28
ENDBRANCH  22  25
ENDBRANCH   1  21
BRANCH   1  35
ATOM     35  CB  TYR A   2      39.919  39.472  40.415  0.00  0.00    +0.055 C 
BRANCH  35  36
ATOM     36  CG  TYR A   2      39.842  38.969  41.843  0.00  0.00    -0.020 A 
ATOM     37  CD2 TYR A   2      40.991  38.596  42.538  0.00  0.00    -0.001 A 
ATOM     38  CE2 TYR A   2      40.916  38.145  43.863  0.00  0.00    +0.036 A 
ATOM     39  CZ  TYR A   2      39.678  38.056  44.486  0.00  0.00    +0.134 A 
ATOM     40  CE1 TYR A   2      38.528  38.417  43.807  0.00  0.00    +0.036 A 
ATOM     41  CD1 TYR A   2      38.615  38.877  42.502  0.00  0.00    -0.001 A 
BRANCH  39  42
ATOM     42  OH  TYR A   2      39.588  37.609  45.789  0.00  0.00    -0.506 OA
ATOM     43  HH  TYR A   2      39.951  36.690  45.847  0.00  0.00    +0.292 HD
ENDBRANCH  39  42
ENDBRANCH  35  36
ENDBRANCH   1  35
TORSDOF 15
REMARK  Name = ../refined-set-2016/2oc2/2oc2_pocket.pdb
REMARK  275 active torsions:
REMARK  status: ('A' for Active; 'I' for Inactive)
REMARK    1  A    between atoms: _1  and  _3
REMARK    2  A    between atoms: _3  and  _4
REMARK    3  A    between atoms: _3  and  _6
REMARK    4  A    between atoms: _6  and  _7
REMARK    5  A    between atoms: _12  and  _14
REMARK    6  A    between atoms: _14  and  _15
REMARK    7  A    between atoms: _14  and  _17
REMARK    8  A    between atoms: _17  and  _18
REMARK    9  A    between atoms: _23  and  _25
REMARK   10  A    between atoms: _25  and  _26
REMARK   11  A    between atoms: _25  and  _28
REMARK   12  A    between atoms: _28  and  _29
REMARK   13  A    between atoms: _29  and  _30
REMARK   14  A    between atoms: _33  and  _35
REMARK   15  A    between atoms: _35  and  _36
REMARK   16  A    between atoms: _35  and  _38
REMARK   17  A    between atoms: _38  and  _39
REMARK   18  A    between atoms: _44  and  _45
REMARK   19  A    between atoms: _47  and  _49
REMARK   20  A    between atoms: _49  and  _50
REMARK   21  A    between atoms: _49  and  _52
REMARK   22  A    between atoms: _52  and  _53
REMARK   23  A    between atoms: _53  and  _54
REMARK   24  A    between atoms: _57  and  _59
REMARK   25  A    between atoms: _59  and  _60
REMARK   26  A    between atoms: _59  and  _62
REMARK   27  A    between atoms: _62  and  _63
REMARK   28  A    between atoms: _68  and  _70
REMARK   29  A    between atoms: _70  and  _71
REMARK   30  A    between atoms: _70  and  _73
REMARK   31  A    between atoms: _73  and  _74
REMARK   32  A    between atoms: _84  and  _86
REMARK   33  A    between atoms: _86  and  _87
REMARK   34  A    between atoms: _86  and  _89
REMARK   35  A    between atoms: _89  and  _90
REMARK   36  A    between atoms: _90  and  _91
REMARK   37  A    between atoms: _96  and  _98
REMARK   38  A    between atoms: _98  and  _99
REMARK   39  A    between atoms: _98  and  _101
REMARK   40  A    between atoms: _101  and  _102
REMARK   41  A    between atoms: _105  and  _107
REMARK   42  A    between atoms: _107  and  _108
REMARK   43  A    between atoms: _107  and  _110
REMARK   44  A    between atoms: _113  and  _115
REMARK   45  A    between atoms: _115  and  _116
REMARK   46  A    between atoms: _115  and  _118
REMARK   47  A    between atoms: _118  and  _119
REMARK   48  A    between atoms: _119  and  _247
REMARK   49  A    between atoms: _120  and  _122
REMARK   50  A    between atoms: _122  and  _123
REMARK   51  A    between atoms: _122  and  _125
REMARK   52  A    between atoms: _125  and  _126
REMARK   53  A    between atoms: _131  and  _133
REMARK   54  A    between atoms: _133  and  _134
REMARK   55  A    between atoms: _137  and  _139
REMARK   56  A    between atoms: _139  and  _140
REMARK   57  A    between atoms: _139  and  _142
REMARK   58  A    between atoms: _142  and  _143
REMARK   59  A    between atoms: _145  and  _147
REMARK   60  A    between atoms: _147  and  _148
REMARK   61  A    between atoms: _151  and  _153
REMARK   62  A    between atoms: _153  and  _154
REMARK   63  A    between atoms: _153  and  _156
REMARK   64  A    between atoms: _156  and  _157
REMARK   65  A    between atoms: _167  and  _169
REMARK   66  A    between atoms: _169  and  _170
REMARK   67  A    between atoms: _169  and  _172
REMARK   68  A    between atoms: _172  and  _173
REMARK   69  A    between atoms: _176  and  _178
REMARK   70  A    between atoms: _178  and  _179
REMARK   71  A    between atoms: _178  and  _181
REMARK   72  A    between atoms: _181  and  _182
REMARK   73  A    between atoms: _187  and  _188
REMARK   74  A    between atoms: _190  and  _192
REMARK   75  A    between atoms: _192  and  _193
REMARK   76  A    between atoms: _192  and  _195
REMARK   77  A    between atoms: _195  and  _196
REMARK   78  A    between atoms: _196  and  _197
REMARK   79  A    between atoms: _197  and  _198
REMARK   80  A    between atoms: _207  and  _209
REMARK   81  A    between atoms: _209  and  _210
REMARK   82  A    between atoms: _209  and  _212
REMARK   83  A    between atoms: _212  and  _213
REMARK   84  A    between atoms: _216  and  _218
REMARK   85  A    between atoms: _218  and  _219
REMARK   86  A    between atoms: _218  and  _221
REMARK   87  A    between atoms: _221  and  _222
REMARK   88  A    between atoms: _222  and  _223
REMARK   89  A    between atoms: _223  and  _224
REMARK   90  A    between atoms: _224  and  _225
REMARK   91  A    between atoms: _229  and  _231
REMARK   92  A    between atoms: _231  and  _232
REMARK   93  A    between atoms: _231  and  _234
REMARK   94  A    between atoms: _234  and  _235
REMARK   95  A    between atoms: _235  and  _236
REMARK   96  A    between atoms: _241  and  _243
REMARK   97  A    between atoms: _243  and  _244
REMARK   98  A    between atoms: _243  and  _246
REMARK   99  A    between atoms: _246  and  _247
REMARK  100  A    between atoms: _248  and  _250
REMARK  101  A    between atoms: _250  and  _251
REMARK  102  A    between atoms: _250  and  _253
REMARK  103  A    between atoms: _253  and  _254
REMARK  104  A    between atoms: _254  and  _255
REMARK  105  A    between atoms: _258  and  _260
REMARK  106  A    between atoms: _260  and  _261
REMARK  107  A    between atoms: _260  and  _263
REMARK  108  A    between atoms: _263  and  _264
REMARK  109  A    between atoms: _267  and  _269
REMARK  110  A    between atoms: _269  and  _270
REMARK  111  A    between atoms: _269  and  _272
REMARK  112  A    between atoms: _275  and  _277
REMARK  113  A    between atoms: _277  and  _278
REMARK  114  A    between atoms: _277  and  _280
REMARK  115  A    between atoms: _283  and  _285
REMARK  116  A    between atoms: _285  and  _286
REMARK  117  A    between atoms: _289  and  _291
REMARK  118  A    between atoms: _291  and  _292
REMARK  119  A    between atoms: _291  and  _294
REMARK  120  A    between atoms: _294  and  _295
REMARK  121  A    between atoms: _300  and  _302
REMARK  122  A    between atoms: _313  and  _316
REMARK  123  A    between atoms: _316  and  _317
REMARK  124  A    between atoms: _317  and  _318
REMARK  125  A    between atoms: _323  and  _326
REMARK  126  A    between atoms: _326  and  _327
REMARK  127  A    between atoms: _327  and  _328
REMARK  128  A    between atoms: _337  and  _338
REMARK  129  A    between atoms: _346  and  _348
REMARK  130  A    between atoms: _348  and  _349
REMARK  131  A    between atoms: _348  and  _351
REMARK  132  A    between atoms: _351  and  _352
REMARK  133  A    between atoms: _355  and  _357
REMARK  134  A    between atoms: _357  and  _358
REMARK  135  A    between atoms: _357  and  _360
REMARK  136  A    between atoms: _360  and  _361
REMARK  137  A    between atoms: _366  and  _367
REMARK  138  A    between atoms: _369  and  _371
REMARK  139  A    between atoms: _371  and  _372
REMARK  140  A    between atoms: _371  and  _374
REMARK  141  A    between atoms: _374  and  _375
REMARK  142  A    between atoms: _381  and  _383
REMARK  143  A    between atoms: _383  and  _384
REMARK  144  A    between atoms: _383  and  _386
REMARK  145  A    between atoms: _386  and  _387
REMARK  146  A    between atoms: _392  and  _393
REMARK  147  A    between atoms: _395  and  _397
REMARK  148  A    between atoms: _397  and  _398
REMARK  149  A    between atoms: _397  and  _400
REMARK  150  A    between atoms: _400  and  _401
REMARK  151  A    between atoms: _401  and  _402
REMARK  152  A    between atoms: _402  and  _403
REMARK  153  A    between atoms: _412  and  _414
REMARK  154  A    between atoms: _414  and  _415
REMARK  155  A    between atoms: _414  and  _417
REMARK  156  A    between atoms: _417  and  _418
REMARK  157  A    between atoms: _418  and  _419
REMARK  158  A    between atoms: _422  and  _424
REMARK  159  A    between atoms: _424  and  _425
REMARK  160  A    between atoms: _427  and  _429
REMARK  161  A    between atoms: _429  and  _430
REMARK  162  A    between atoms: _429  and  _432
REMARK  163  A    between atoms: _432  and  _433
REMARK  164  A    between atoms: _439  and  _440
REMARK  165  A    between atoms: _445  and  _447
REMARK  166  A    between atoms: _447  and  _448
REMARK  167  A    between atoms: _447  and  _450
REMARK  168  A    between atoms: _450  and  _451
REMARK  169  A    between atoms: _457  and  _459
REMARK  170  A    between atoms: _459  and  _460
REMARK  171  A    between atoms: _459  and  _462
REMARK  172  A    between atoms: _462  and  _463
REMARK  173  A    between atoms: _468  and  _470
REMARK  174  A    between atoms: _470  and  _471
REMARK  175  A    between atoms: _470  and  _473
REMARK  176  A    between atoms: _473  and  _474
REMARK  177  A    between atoms: _474  and  _475
REMARK  178  A    between atoms: _475  and  _476
REMARK  179  A    between atoms: _476  and  ZN_722
REMARK  180  A    between atoms: _478  and  _480
REMARK  181  A    between atoms: _480  and  _481
REMARK  182  A    between atoms: _484  and  _486
REMARK  183  A    between atoms: _486  and  _487
REMARK  184  A    between atoms: _489  and  _491
REMARK  185  A    between atoms: _491  and  _492
REMARK  186  A    between atoms: _491  and  _494
REMARK  187  A    between atoms: _494  and  _495
REMARK  188  A    between atoms: _498  and  _500
REMARK  189  A    between atoms: _500  and  _501
REMARK  190  A    between atoms: _504  and  _506
REMARK  191  A    between atoms: _506  and  _507
REMARK  192  A    between atoms: _506  and  _509
REMARK  193  A    between atoms: _509  and  _510
REMARK  194  A    between atoms: _513  and  _515
REMARK  195  A    between atoms: _515  and  _516
REMARK  196  A    between atoms: _515  and  _518
REMARK  197  A    between atoms: _518  and  _519
REMARK  198  A    between atoms: _519  and  _520
REMARK  199  A    between atoms: _520  and  _521
REMARK  200  A    between atoms: _521  and  _522
REMARK  201  A    between atoms: _526  and  _528
REMARK  202  A    between atoms: _528  and  _529
REMARK  203  A    between atoms: _528  and  _531
REMARK  204  A    between atoms: _531  and  _532
REMARK  205  A    between atoms: _538  and  _540
REMARK  206  A    between atoms: _540  and  _541
REMARK  207  A    between atoms: _540  and  _543
REMARK  208  A    between atoms: _543  and  _544
REMARK  209  A    between atoms: _550  and  _552
REMARK  210  A    between atoms: _552  and  _553
REMARK  211  A    between atoms: _552  and  _555
REMARK  212  A    between atoms: _555  and  _556
REMARK  213  A    between atoms: _558  and  _560
REMARK  214  A    between atoms: _560  and  _561
REMARK  215  A    between atoms: _560  and  _563
REMARK  216  A    between atoms: _566  and  _568
REMARK  217  A    between atoms: _568  and  _569
REMARK  218  A    between atoms: _568  and  _571
REMARK  219  A    between atoms: _571  and  _572
REMARK  220  A    between atoms: _572  and  _573
REMARK  221  A    between atoms: _573  and  _574
REMARK  222  A    between atoms: _574  and  _575
REMARK  223  A    between atoms: _579  and  _581
REMARK  224  A    between atoms: _581  and  _582
REMARK  225  A    between atoms: _581  and  _584
REMARK  226  A    between atoms: _584  and  _585
REMARK  227  A    between atoms: _591  and  _593
REMARK  228  A    between atoms: _593  and  _594
REMARK  229  A    between atoms: _593  and  _596
REMARK  230  A    between atoms: _596  and  _597
REMARK  231  A    between atoms: _602  and  _604
REMARK  232  A    between atoms: _604  and  _605
REMARK  233  A    between atoms: _604  and  _607
REMARK  234  A    between atoms: _607  and  _608
REMARK  235  A    between atoms: _610  and  _612
REMARK  236  A    between atoms: _612  and  _613
REMARK  237  A    between atoms: _612  and  _615
REMARK  238  A    between atoms: _615  and  _616
REMARK  239  A    between atoms: _618  and  _620
REMARK  240  A    between atoms: _620  and  _621
REMARK  241  A    between atoms: _620  and  _623
REMARK  242  A    between atoms: _627  and  _628
REMARK  243  A    between atoms: _633  and  _635
REMARK  244  A    between atoms: _635  and  _636
REMARK  245  A    between atoms: _635  and  _638
REMARK  246  A    between atoms: _638  and  _639
REMARK  247  A    between atoms: _644  and  _645
REMARK  248  A    between atoms: _647  and  _649
REMARK  249  A    between atoms: _649  and  _650
REMARK  250  A    between atoms: _649  and  _652
REMARK  251  A    between atoms: _652  and  _653
REMARK  252  A    between atoms: _653  and  _654
REMARK  253  A    between atoms: _654  and  _655
REMARK  254  A    between atoms: _664  and  _666
REMARK  255  A    between atoms: _666  and  _667
REMARK  256  A    between atoms: _666  and  _669
REMARK  257  A    between atoms: _669  and  _670
REMARK  258  A    between atoms: _675  and  _676
REMARK  259  A    between atoms: _678  and  _680
REMARK  260  A    between atoms: _680  and  _681
REMARK  261  A    between atoms: _680  and  _683
REMARK  262  A    between atoms: _683  and  _684
REMARK  263  A    between atoms: _690  and  _692
REMARK  264  A    between atoms: _692  and  _693
REMARK  265  A    between atoms: _692  and  _695
REMARK  266  A    between atoms: _695  and  _696
REMARK  267  A    between atoms: _698  and  _700
REMARK  268  A    between atoms: _700  and  _701
REMARK  269  A    between atoms: _700  and  _703
REMARK  270  A    between atoms: _703  and  _704
REMARK  271  A    between atoms: _710  and  _712
REMARK  272  A    between atoms: _712  and  _713
REMARK  273  A    between atoms: _712  and  _715
REMARK  274  A    between atoms: _715  and  _716
REMARK  275  A    between atoms: _716  and  _717
REMARK                            x       y       z     vdW  Elec       q    Type
REMARK                         _______ _______ _______ _____ _____    ______ ____
ROOT
ATOM      1  C   SER A   1      44.933  43.154  38.100  0.00  0.00    +0.241 C 
ATOM      2  O   SER A   1      46.140  43.352  37.967  0.00  0.00    -0.274 OA
ATOM      3  N   PHE A   2      44.209  42.478  37.207  0.00  0.00    -0.298 N 
ATOM      4  H   PHE A   2      43.177  42.421  37.323  0.00  0.00    +0.150 HD
ENDROOT
BRANCH   1   5
ATOM      5  CA  SER A   1      44.199  43.711  39.324  0.00  0.00    +0.174 C 
BRANCH   5   6
ATOM      6  N   SER A   1      42.901  44.292  39.017  0.00  0.00    -0.236 NA
ATOM      7  H   SER A   1      42.071  43.935  39.531  0.00  0.00    +0.142 HD
ENDBRANCH   5   6
BRANCH   5   8
ATOM      8  CB  SER A   1      44.048  42.640  40.406  0.00  0.00    +0.163 C 
BRANCH   8   9
ATOM      9  OG  SER A   1      45.131  41.731  40.411  0.00  0.00    -0.380 OA
ATOM     10  H   SER A   1      44.992  41.058  41.124  0.00  0.00    +0.211 HD
ENDBRANCH   8   9
ENDBRANCH   5   8
ENDBRANCH   1   5
BRANCH   3  11
ATOM     11  CA  PHE A   2      44.843  41.815  36.065  0.00  0.00    +0.141 C 
BRANCH  11  12
ATOM     12  C   PHE A   2      45.299  42.813  35.006  0.00  0.00    +0.227 C 
ATOM     13  O   PHE A   2      46.363  42.652  34.416  0.00  0.00    -0.286 OA
ENDBRANCH  11  12
BRANCH  11  14
ATOM     14  CB  PHE A   2      43.948  40.707  35.498  0.00  0.00    +0.054 C 
BRANCH  14  15
ATOM     15  CG  PHE A   2      44.198  39.351  36.117  0.00  0.00    -0.020 A 
ATOM     16  CD2 PHE A   2      44.228  39.192  37.507  0.00  0.00    -0.004 A 
ATOM     17  CE2 PHE A   2      44.453  37.938  38.084  0.00  0.00    -0.000 A 
ATOM     18  CZ  PHE A   2      44.646  36.828  37.268  0.00  0.00    -0.000 A 
ATOM     19  CE1 PHE A   2      44.611  36.970  35.878  0.00  0.00    -0.000 A 
ATOM     20  CD1 PHE A   2      44.390  38.223  35.311  0.00  0.00    -0.004 A 
ENDBRANCH  14  15
ENDBRANCH  11  14
ENDBRANCH   3  11
TORSDOF 8
REMARK  Name = ../refined-set-2016/2oc2/2oc2_pocket.pdb
REMARK  275 active torsions:
REMARK  status: ('A' for Active; 'I' for Inactive)
REMARK    1  A    between atoms: _1  and  _3
REMARK    2  A    between atoms: _3  and  _4
REMARK    3  A    between atoms: _3  and  _6
REMARK    4  A    between atoms: _6  and  _7
REMARK    5  A    between atoms: _12  and  _14
REMARK    6  A    between atoms: _14  and  _15
REMARK    7  A    between atoms: _14  and  _17
REMARK    8  A    between atoms: _17  and  _18
REMARK    9  A    between atoms: _23  and  _25
REMARK   10  A    between atoms: _25  and  _26
REMARK   11  A    between atoms: _25  and  _28
REMARK   12  A    between atoms: _28  and  _29
REMARK   13  A    between atoms: _29  and  _30
REMARK   14  A    between atoms: _33  and  _35
REMARK   15  A    between atoms: _35  and  _36
REMARK   16  A    between atoms: _35  and  _38
REMARK   17  A    between atoms: _38  and  _39
REMARK   18  A    between atoms: _44  and  _45
REMARK   19  A    between atoms: _47  and  _49
REMARK   20  A    between atoms: _49  and  _50
REMARK   21  A    between atoms: _49  and  _52
REMARK   22  A    between atoms: _52  and  _53
REMARK   23  A    between atoms: _53  and  _54
REMARK   24  A    between atoms: _57  and  _59
REMARK   25  A    between atoms: _59  and  _60
REMARK   26  A    between atoms: _59  and  _62
REMARK   27  A    between atoms: _62  and  _63
REMARK   28  A    between atoms: _68  and  _70
REMARK   29  A    between atoms: _70  and  _71
REMARK   30  A    between atoms: _70  and  _73
REMARK   31  A    between atoms: _73  and  _74
REMARK   32  A    between atoms: _84  and  _86
REMARK   33  A    between atoms: _86  and  _87
REMARK   34  A    between atoms: _86  and  _89
REMARK   35  A    between atoms: _89  and  _90
REMARK   36  A    between atoms: _90  and  _91
REMARK   37  A    between atoms: _96  and  _98
REMARK   38  A    between atoms: _98  and  _99
REMARK   39  A    between atoms: _98  and  _101
REMARK   40  A    between atoms: _101  and  _102
REMARK   41  A    between atoms: _105  and  _107
REMARK   42  A    between atoms: _107  and  _108
REMARK   43  A    between atoms: _107  and  _110
REMARK   44  A    between atoms: _113  and  _115
REMARK   45  A    between atoms: _115  and  _116
REMARK   46  A    between atoms: _115  and  _118
REMARK   47  A    between atoms: _118  and  _119
REMARK   48  A    between atoms: _119  and  _247
REMARK   49  A    between atoms: _120  and  _122
REMARK   50  A    between atoms: _122  and  _123
REMARK   51  A    between atoms: _122  and  _125
REMARK   52  A    between atoms: _125  and  _126
REMARK   53  A    between atoms: _131  and  _133
REMARK   54  A    between atoms: _133  and  _134
REMARK   55  A    between atoms: _137  and  _139
REMARK   56  A    between atoms: _139  and  _140
REMARK   57  A    between atoms: _139  and  _142
REMARK   58  A    between atoms: _142  and  _143
REMARK   59  A    between atoms: _145  and  _147
REMARK   60  A    between atoms: _147  and  _148
REMARK   61  A    between atoms: _151  and  _153
REMARK   62  A    between atoms: _153  and  _154
REMARK   63  A    between atoms: _153  and  _156
REMARK   64  A    between atoms: _156  and  _157
REMARK   65  A    between atoms: _167  and  _169
REMARK   66  A    between atoms: _169  and  _170
REMARK   67  A    between atoms: _169  and  _172
REMARK   68  A    between atoms: _172  and  _173
REMARK   69  A    between atoms: _176  and  _178
REMARK   70  A    between atoms: _178  and  _179
REMARK   71  A    between atoms: _178  and  _181
REMARK   72  A    between atoms: _181  and  _182
REMARK   73  A    between atoms: _187  and  _188
REMARK   74  A    between atoms: _190  and  _192
REMARK   75  A    between atoms: _192  and  _193
REMARK   76  A    between atoms: _192  and  _195
REMARK   77  A    between atoms: _195  and  _196
REMARK   78  A    between atoms: _196  and  _197
REMARK   79  A    between atoms: _197  and  _198
REMARK   80  A    between atoms: _207  and  _209
REMARK   81  A    between atoms: _209  and  _210
REMARK   82  A    between atoms: _209  and  _212
REMARK   83  A    between atoms: _212  and  _213
REMARK   84  A    between atoms: _216  and  _218
REMARK   85  A    between atoms: _218  and  _219
REMARK   86  A    between atoms: _218  and  _221
REMARK   87  A    between atoms: _221  and  _222
REMARK   88  A    between atoms: _222  and  _223
REMARK   89  A    between atoms: _223  and  _224
REMARK   90  A    between atoms: _224  and  _225
REMARK   91  A    between atoms: _229  and  _231
REMARK   92  A    between atoms: _231  and  _232
REMARK   93  A    between atoms: _231  and  _234
REMARK   94  A    between atoms: _234  and  _235
REMARK   95  A    between atoms: _235  and  _236
REMARK   96  A    between atoms: _241  and  _243
REMARK   97  A    between atoms: _243  and  _244
REMARK   98  A    between atoms: _243  and  _246
REMARK   99  A    between atoms: _246  and  _247
REMARK  100  A    between atoms: _248  and  _250
REMARK  101  A    between atoms: _250  and  _251
REMARK  102  A    between atoms: _250  and  _253
REMARK  103  A    between atoms: _253  and  _254
REMARK  104  A    between atoms: _254  and  _255
REMARK  105  A    between atoms: _258  and  _260
REMARK  106  A    between atoms: _260  and  _261
REMARK  107  A    between atoms: _260  and  _263
REMARK  108  A    between atoms: _263  and  _264
REMARK  109  A    between atoms: _267  and  _269
REMARK  110  A    between atoms: _269  and  _270
REMARK  111  A    between atoms: _269  and  _272
REMARK  112  A    between atoms: _275  and  _277
REMARK  113  A    between atoms: _277  and  _278
REMARK  114  A    between atoms: _277  and  _280
REMARK  115  A    between atoms: _283  and  _285
REMARK  116  A    between atoms: _285  and  _286
REMARK  117  A    between atoms: _289  and  _291
REMARK  118  A    between atoms: _291  and  _292
REMARK  119  A    between atoms: _291  and  _294
REMARK  120  A    between atoms: _294  and  _295
REMARK  121  A    between atoms: _300  and  _302
REMARK  122  A    between atoms: _313  and  _316
REMARK  123  A    between atoms: _316  and  _317
REMARK  124  A    between atoms: _317  and  _318
REMARK  125  A    between atoms: _323  and  _326
REMARK  126  A    between atoms: _326  and  _327
REMARK  127  A    between atoms: _327  and  _328
REMARK  128  A    between atoms: _337  and  _338
REMARK  129  A    between atoms: _346  and  _348
REMARK  130  A    between atoms: _348  and  _349
REMARK  131  A    between atoms: _348  and  _351
REMARK  132  A    between atoms: _351  and  _352
REMARK  133  A    between atoms: _355  and  _357
REMARK  134  A    between atoms: _357  and  _358
REMARK  135  A    between atoms: _357  and  _360
REMARK  136  A    between atoms: _360  and  _361
REMARK  137  A    between atoms: _366  and  _367
REMARK  138  A    between atoms: _369  and  _371
REMARK  139  A    between atoms: _371  and  _372
REMARK  140  A    between atoms: _371  and  _374
REMARK  141  A    between atoms: _374  and  _375
REMARK  142  A    between atoms: _381  and  _383
REMARK  143  A    between atoms: _383  and  _384
REMARK  144  A    between atoms: _383  and  _386
REMARK  145  A    between atoms: _386  and  _387
REMARK  146  A    between atoms: _392  and  _393
REMARK  147  A    between atoms: _395  and  _397
REMARK  148  A    between atoms: _397  and  _398
REMARK  149  A    between atoms: _397  and  _400
REMARK  150  A    between atoms: _400  and  _401
REMARK  151  A    between atoms: _401  and  _402
REMARK  152  A    between atoms: _402  and  _403
REMARK  153  A    between atoms: _412  and  _414
REMARK  154  A    between atoms: _414  and  _415
REMARK  155  A    between atoms: _414  and  _417
REMARK  156  A    between atoms: _417  and  _418
REMARK  157  A    between atoms: _418  and  _419
REMARK  158  A    between atoms: _422  and  _424
REMARK  159  A    between atoms: _424  and  _425
REMARK  160  A    between atoms: _427  and  _429
REMARK  161  A    between atoms: _429  and  _430
REMARK  162  A    between atoms: _429  and  _432
REMARK  163  A    between atoms: _432  and  _433
REMARK  164  A    between atoms: _439  and  _440
REMARK  165  A    between atoms: _445  and  _447
REMARK  166  A    between atoms: _447  and  _448
REMARK  167  A    between atoms: _447  and  _450
REMARK  168  A    between atoms: _450  and  _451
REMARK  169  A    between atoms: _457  and  _459
REMARK  170  A    between atoms: _459  and  _460
REMARK  171  A    between atoms: _459  and  _462
REMARK  172  A    between atoms: _462  and  _463
REMARK  173  A    between atoms: _468  and  _470
REMARK  174  A    between atoms: _470  and  _471
REMARK  175  A    between atoms: _470  and  _473
REMARK  176  A    between atoms: _473  and  _474
REMARK  177  A    between atoms: _474  and  _475
REMARK  178  A    between atoms: _475  and  _476
REMARK  179  A    between atoms: _476  and  ZN_722
REMARK  180  A    between atoms: _478  and  _480
REMARK  181  A    between atoms: _480  and  _481
REMARK  182  A    between atoms: _484  and  _486
REMARK  183  A    between atoms: _486  and  _487
REMARK  184  A    between atoms: _489  and  _491
REMARK  185  A    between atoms: _491  and  _492
REMARK  186  A    between atoms: _491  and  _494
REMARK  187  A    between atoms: _494  and  _495
REMARK  188  A    between atoms: _498  and  _500
REMARK  189  A    between atoms: _500  and  _501
REMARK  190  A    between atoms: _504  and  _506
REMARK  191  A    between atoms: _506  and  _507
REMARK  192  A    between atoms: _506  and  _509
REMARK  193  A    between atoms: _509  and  _510
REMARK  194  A    between atoms: _513  and  _515
REMARK  195  A    between atoms: _515  and  _516
REMARK  196  A    between atoms: _515  and  _518
REMARK  197  A    between atoms: _518  and  _519
REMARK  198  A    between atoms: _519  and  _520
REMARK  199  A    between atoms: _520  and  _521
REMARK  200  A    between atoms: _521  and  _522
REMARK  201  A    between atoms: _526  and  _528
REMARK  202  A    between atoms: _528  and  _529
REMARK  203  A    between atoms: _528  and  _531
REMARK  204  A    between atoms: _531  and  _532
REMARK  205  A    between atoms: _538  and  _540
REMARK  206  A    between atoms: _540  and  _541
REMARK  207  A    between atoms: _540  and  _543
REMARK  208  A    between atoms: _543  and  _544
REMARK  209  A    between atoms: _550  and  _552
REMARK  210  A    between atoms: _552  and  _553
REMARK  211  A    between atoms: _552  and  _555
REMARK  212  A    between atoms: _555  and  _556
REMARK  213  A    between atoms: _558  and  _560
REMARK  214  A    between atoms: _560  and  _561
REMARK  215  A    between atoms: _560  and  _563
REMARK  216  A    between atoms: _566  and  _568
REMARK  217  A    between atoms: _568  and  _569
REMARK  218  A    between atoms: _568  and  _571
REMARK  219  A    between atoms: _571  and  _572
REMARK  220  A    between atoms: _572  and  _573
REMARK  221  A    between atoms: _573  and  _574
REMARK  222  A    between atoms: _574  and  _575
REMARK  223  A    between atoms: _579  and  _581
REMARK  224  A    between atoms: _581  and  _582
REMARK  225  A    between atoms: _581  and  _584
REMARK  226  A    between atoms: _584  and  _585
REMARK  227  A    between atoms: _591  and  _593
REMARK  228  A    between atoms: _593  and  _594
REMARK  229  A    between atoms: _593  and  _596
REMARK  230  A    between atoms: _596  and  _597
REMARK  231  A    between atoms: _602  and  _604
REMARK  232  A    between atoms: _604  and  _605
REMARK  233  A    between atoms: _604  and  _607
REMARK  234  A    between atoms: _607  and  _608
REMARK  235  A    between atoms: _610  and  _612
REMARK  236  A    between atoms: _612  and  _613
REMARK  237  A    between atoms: _612  and  _615
REMARK  238  A    between atoms: _615  and  _616
REMARK  239  A    between atoms: _618  and  _620
REMARK  240  A    between atoms: _620  and  _621
REMARK  241  A    between atoms: _620  and  _623
REMARK  242  A    between atoms: _627  and  _628
REMARK  243  A    between atoms: _633  and  _635
REMARK  244  A    between atoms: _635  and  _636
REMARK  245  A    between atoms: _635  and  _638
REMARK  246  A    between atoms: _638  and  _639
REMARK  247  A    between atoms: _644  and  _645
REMARK  248  A    between atoms: _647  and  _649
REMARK  249  A    between atoms: _649  and  _650
REMARK  250  A    between atoms: _649  and  _652
REMARK  251  A    between atoms: _652  and  _653
REMARK  252  A    between atoms: _653  and  _654
REMARK  253  A    between atoms: _654  and  _655
REMARK  254  A    between atoms: _664  and  _666
REMARK  255  A    between atoms: _666  and  _667
REMARK  256  A    between atoms: _666  and  _669
REMARK  257  A    between atoms: _669  and  _670
REMARK  258  A    between atoms: _675  and  _676
REMARK  259  A    between atoms: _678  and  _680
REMARK  260  A    between atoms: _680  and  _681
REMARK  261  A    between atoms: _680  and  _683
REMARK  262  A    between atoms: _683  and  _684
REMARK  263  A    between atoms: _690  and  _692
REMARK  264  A    between atoms: _692  and  _693
REMARK  265  A    between atoms: _692  and  _695
REMARK  266  A    between atoms: _695  and  _696
REMARK  267  A    between atoms: _698  and  _700
REMARK  268  A    between atoms: _700  and  _701
REMARK  269  A    between atoms: _700  and  _703
REMARK  270  A    between atoms: _703  and  _704
REMARK  271  A    between atoms: _710  and  _712
REMARK  272  A    between atoms: _712  and  _713
REMARK  273  A    between atoms: _712  and  _715
REMARK  274  A    between atoms: _715  and  _716
REMARK  275  A    between atoms: _716  and  _717
REMARK                            x       y       z     vdW  Elec       q    Type
REMARK                         _______ _______ _______ _____ _____    ______ ____
ROOT
ATOM      1  CB  GLN A   1      49.215  42.870  37.787  0.00  0.00    +0.035 C 
ENDROOT
BRANCH   1   2
ATOM      2  CA  GLN A   1      49.498  44.321  37.355  0.00  0.00    +0.134 C 
BRANCH   2   3
ATOM      3  N   GLN A   1      48.267  45.069  37.038  0.00  0.00    -0.239 NA
ATOM      4  H   GLN A   1      47.368  44.552  36.961  0.00  0.00    +0.142 HD
ENDBRANCH   2   3
BRANCH   2   5
ATOM      5  C   GLN A   1      50.511  44.368  36.222  0.00  0.00    +0.224 C 
ATOM      6  O   GLN A   1      51.709  44.447  36.460  0.00  0.00    -0.287 OA
ENDBRANCH   2   5
ENDBRANCH   1   2
BRANCH   1   7
ATOM      7  CG  GLN A   1      48.731  41.906  36.694  0.00  0.00    +0.087 C 
BRANCH   7   8
ATOM      8  CD  GLN A   1      48.326  40.542  37.246  0.00  0.00    +0.219 C 
ATOM      9  NE2 GLN A   1      47.335  40.527  38.133  0.00  0.00    -0.329 N 
ATOM     10 HE21 GLN A   1      47.019  39.626  38.545  0.00  0.00    +0.145 HD
ATOM     11 HE22 GLN A   1      46.876  41.417  38.415  0.00  0.00    +0.145 HD
ATOM     12  OE1 GLN A   1      48.900  39.516  36.881  0.00  0.00    -0.275 OA
ENDBRANCH   7   8
ENDBRANCH   1   7
TORSDOF 5
REMARK  Name = ../refined-set-2016/2oc2/2oc2_pocket.pdb
REMARK  275 active torsions:
REMARK  status: ('A' for Active; 'I' for Inactive)
REMARK    1  A    between atoms: _1  and  _3
REMARK    2  A    between atoms: _3  and  _4
REMARK    3  A    between atoms: _3  and  _6
REMARK    4  A    between atoms: _6  and  _7
REMARK    5  A    between atoms: _12  and  _14
REMARK    6  A    between atoms: _14  and  _15
REMARK    7  A    between atoms: _14  and  _17
REMARK    8  A    between atoms: _17  and  _18
REMARK    9  A    between atoms: _23  and  _25
REMARK   10  A    between atoms: _25  and  _26
REMARK   11  A    between atoms: _25  and  _28
REMARK   12  A    between atoms: _28  and  _29
REMARK   13  A    between atoms: _29  and  _30
REMARK   14  A    between atoms: _33  and  _35
REMARK   15  A    between atoms: _35  and  _36
REMARK   16  A    between atoms: _35  and  _38
REMARK   17  A    between atoms: _38  and  _39
REMARK   18  A    between atoms: _44  and  _45
REMARK   19  A    between atoms: _47  and  _49
REMARK   20  A    between atoms: _49  and  _50
REMARK   21  A    between atoms: _49  and  _52
REMARK   22  A    between atoms: _52  and  _53
REMARK   23  A    between atoms: _53  and  _54
REMARK   24  A    between atoms: _57  and  _59
REMARK   25  A    between atoms: _59  and  _60
REMARK   26  A    between atoms: _59  and  _62
REMARK   27  A    between atoms: _62  and  _63
REMARK   28  A    between atoms: _68  and  _70
REMARK   29  A    between atoms: _70  and  _71
REMARK   30  A    between atoms: _70  and  _73
REMARK   31  A    between atoms: _73  and  _74
REMARK   32  A    between atoms: _84  and  _86
REMARK   33  A    between atoms: _86  and  _87
REMARK   34  A    between atoms: _86  and  _89
REMARK   35  A    between atoms: _89  and  _90
REMARK   36  A    between atoms: _90  and  _91
REMARK   37  A    between atoms: _96  and  _98
REMARK   38  A    between atoms: _98  and  _99
REMARK   39  A    between atoms: _98  and  _101
REMARK   40  A    between atoms: _101  and  _102
REMARK   41  A    between atoms: _105  and  _107
REMARK   42  A    between atoms: _107  and  _108
REMARK   43  A    between atoms: _107  and  _110
REMARK   44  A    between atoms: _113  and  _115
REMARK   45  A    between atoms: _115  and  _116
REMARK   46  A    between atoms: _115  and  _118
REMARK   47  A    between atoms: _118  and  _119
REMARK   48  A    between atoms: _119  and  _247
REMARK   49  A    between atoms: _120  and  _122
REMARK   50  A    between atoms: _122  and  _123
REMARK   51  A    between atoms: _122  and  _125
REMARK   52  A    between atoms: _125  and  _126
REMARK   53  A    between atoms: _131  and  _133
REMARK   54  A    between atoms: _133  and  _134
REMARK   55  A    between atoms: _137  and  _139
REMARK   56  A    between atoms: _139  and  _140
REMARK   57  A    between atoms: _139  and  _142
REMARK   58  A    between atoms: _142  and  _143
REMARK   59  A    between atoms: _145  and  _147
REMARK   60  A    between atoms: _147  and  _148
REMARK   61  A    between atoms: _151  and  _153
REMARK   62  A    between atoms: _153  and  _154
REMARK   63  A    between atoms: _153  and  _156
REMARK   64  A    between atoms: _156  and  _157
REMARK   65  A    between atoms: _167  and  _169
REMARK   66  A    between atoms: _169  and  _170
REMARK   67  A    between atoms: _169  and  _172
REMARK   68  A    between atoms: _172  and  _173
REMARK   69  A    between atoms: _176  and  _178
REMARK   70  A    between atoms: _178  and  _179
REMARK   71  A    between atoms: _178  and  _181
REMARK   72  A    between atoms: _181  and  _182
REMARK   73  A    between atoms: _187  and  _188
REMARK   74  A    between atoms: _190  and  _192
REMARK   75  A    between atoms: _192  and  _193
REMARK   76  A    between atoms: _192  and  _195
REMARK   77  A    between atoms: _195  and  _196
REMARK   78  A    between atoms: _196  and  _197
REMARK   79  A    between atoms: _197  and  _198
REMARK   80  A    between atoms: _207  and  _209
REMARK   81  A    between atoms: _209  and  _210
REMARK   82  A    between atoms: _209  and  _212
REMARK   83  A    between atoms: _212  and  _213
REMARK   84  A    between atoms: _216  and  _218
REMARK   85  A    between atoms: _218  and  _219
REMARK   86  A    between atoms: _218  and  _221
REMARK   87  A    between atoms: _221  and  _222
REMARK   88  A    between atoms: _222  and  _223
REMARK   89  A    between atoms: _223  and  _224
REMARK   90  A    between atoms: _224  and  _225
REMARK   91  A    between atoms: _229  and  _231
REMARK   92  A    between atoms: _231  and  _232
REMARK   93  A    between atoms: _231  and  _234
REMARK   94  A    between atoms: _234  and  _235
REMARK   95  A    between atoms: _235  and  _236
REMARK   96  A    between atoms: _241  and  _243
REMARK   97  A    between atoms: _243  and  _244
REMARK   98  A    between atoms: _243  and  _246
REMARK   99  A    between atoms: _246  and  _247
REMARK  100  A    between atoms: _248  and  _250
REMARK  101  A    between atoms: _250  and  _251
REMARK  102  A    between atoms: _250  and  _253
REMARK  103  A    between atoms: _253  and  _254
REMARK  104  A    between atoms: _254  and  _255
REMARK  105  A    between atoms: _258  and  _260
REMARK  106  A    between atoms: _260  and  _261
REMARK  107  A    between atoms: _260  and  _263
REMARK  108  A    between atoms: _263  and  _264
REMARK  109  A    between atoms: _267  and  _269
REMARK  110  A    between atoms: _269  and  _270
REMARK  111  A    between atoms: _269  and  _272
REMARK  112  A    between atoms: _275  and  _277
REMARK  113  A    between atoms: _277  and  _278
REMARK  114  A    between atoms: _277  and  _280
REMARK  115  A    between atoms: _283  and  _285
REMARK  116  A    between atoms: _285  and  _286
REMARK  117  A    between atoms: _289  and  _291
REMARK  118  A    between atoms: _291  and  _292
REMARK  119  A    between atoms: _291  and  _294
REMARK  120  A    between atoms: _294  and  _295
REMARK  121  A    between atoms: _300  and  _302
REMARK  122  A    between atoms: _313  and  _316
REMARK  123  A    between atoms: _316  and  _317
REMARK  124  A    between atoms: _317  and  _318
REMARK  125  A    between atoms: _323  and  _326
REMARK  126  A    between atoms: _326  and  _327
REMARK  127  A    between atoms: _327  and  _328
REMARK  128  A    between atoms: _337  and  _338
REMARK  129  A    between atoms: _346  and  _348
REMARK  130  A    between atoms: _348  and  _349
REMARK  131  A    between atoms: _348  and  _351
REMARK  132  A    between atoms: _351  and  _352
REMARK  133  A    between atoms: _355  and  _357
REMARK  134  A    between atoms: _357  and  _358
REMARK  135  A    between atoms: _357  and  _360
REMARK  136  A    between atoms: _360  and  _361
REMARK  137  A    between atoms: _366  and  _367
REMARK  138  A    between atoms: _369  and  _371
REMARK  139  A    between atoms: _371  and  _372
REMARK  140  A    between atoms: _371  and  _374
REMARK  141  A    between atoms: _374  and  _375
REMARK  142  A    between atoms: _381  and  _383
REMARK  143  A    between atoms: _383  and  _384
REMARK  144  A    between atoms: _383  and  _386
REMARK  145  A    between atoms: _386  and  _387
REMARK  146  A    between atoms: _392  and  _393
REMARK  147  A    between atoms: _395  and  _397
REMARK  148  A    between atoms: _397  and  _398
REMARK  149  A    between atoms: _397  and  _400
REMARK  150  A    between atoms: _400  and  _401
REMARK  151  A    between atoms: _401  and  _402
REMARK  152  A    between atoms: _402  and  _403
REMARK  153  A    between atoms: _412  and  _414
REMARK  154  A    between atoms: _414  and  _415
REMARK  155  A    between atoms: _414  and  _417
REMARK  156  A    between atoms: _417  and  _418
REMARK  157  A    between atoms: _418  and  _419
REMARK  158  A    between atoms: _422  and  _424
REMARK  159  A    between atoms: _424  and  _425
REMARK  160  A    between atoms: _427  and  _429
REMARK  161  A    between atoms: _429  and  _430
REMARK  162  A    between atoms: _429  and  _432
REMARK  163  A    between atoms: _432  and  _433
REMARK  164  A    between atoms: _439  and  _440
REMARK  165  A    between atoms: _445  and  _447
REMARK  166  A    between atoms: _447  and  _448
REMARK  167  A    between atoms: _447  and  _450
REMARK  168  A    between atoms: _450  and  _451
REMARK  169  A    between atoms: _457  and  _459
REMARK  170  A    between atoms: _459  and  _460
REMARK  171  A    between atoms: _459  and  _462
REMARK  172  A    between atoms: _462  and  _463
REMARK  173  A    between atoms: _468  and  _470
REMARK  174  A    between atoms: _470  and  _471
REMARK  175  A    between atoms: _470  and  _473
REMARK  176  A    between atoms: _473  and  _474
REMARK  177  A    between atoms: _474  and  _475
REMARK  178  A    between atoms: _475  and  _476
REMARK  179  A    between atoms: _476  and  ZN_722
REMARK  180  A    between atoms: _478  and  _480
REMARK  181  A    between atoms: _480  and  _481
REMARK  182  A    between atoms: _484  and  _486
REMARK  183  A    between atoms: _486  and  _487
REMARK  184  A    between atoms: _489  and  _491
REMARK  185  A    between atoms: _491  and  _492
REMARK  186  A    between atoms: _491  and  _494
REMARK  187  A    between atoms: _494  and  _495
REMARK  188  A    between atoms: _498  and  _500
REMARK  189  A    between atoms: _500  and  _501
REMARK  190  A    between atoms: _504  and  _506
REMARK  191  A    between atoms: _506  and  _507
REMARK  192  A    between atoms: _506  and  _509
REMARK  193  A    between atoms: _509  and  _510
REMARK  194  A    between atoms: _513  and  _515
REMARK  195  A    between atoms: _515  and  _516
REMARK  196  A    between atoms: _515  and  _518
REMARK  197  A    between atoms: _518  and  _519
REMARK  198  A    between atoms: _519  and  _520
REMARK  199  A    between atoms: _520  and  _521
REMARK  200  A    between atoms: _521  and  _522
REMARK  201  A    between atoms: _526  and  _528
REMARK  202  A    between atoms: _528  and  _529
REMARK  203  A    between atoms: _528  and  _531
REMARK  204  A    between atoms: _531  and  _532
REMARK  205  A    between atoms: _538  and  _540
REMARK  206  A    between atoms: _540  and  _541
REMARK  207  A    between atoms: _540  and  _543
REMARK  208  A    between atoms: _543  and  _544
REMARK  209  A    between atoms: _550  and  _552
REMARK  210  A    between atoms: _552  and  _553
REMARK  211  A    between atoms: _552  and  _555
REMARK  212  A    between atoms: _555  and  _556
REMARK  213  A    between atoms: _558  and  _560
REMARK  214  A    between atoms: _560  and  _561
REMARK  215  A    between atoms: _560  and  _563
REMARK  216  A    between atoms: _566  and  _568
REMARK  217  A    between atoms: _568  and  _569
REMARK  218  A    between atoms: _568  and  _571
REMARK  219  A    between atoms: _571  and  _572
REMARK  220  A    between atoms: _572  and  _573
REMARK  221  A    between atoms: _573  and  _574
REMARK  222  A    between atoms: _574  and  _575
REMARK  223  A    between atoms: _579  and  _581
REMARK  224  A    between atoms: _581  and  _582
REMARK  225  A    between atoms: _581  and  _584
REMARK  226  A    between atoms: _584  and  _585
REMARK  227  A    between atoms: _591  and  _593
REMARK  228  A    between atoms: _593  and  _594
REMARK  229  A    between atoms: _593  and  _596
REMARK  230  A    between atoms: _596  and  _597
REMARK  231  A    between atoms: _602  and  _604
REMARK  232  A    between atoms: _604  and  _605
REMARK  233  A    between atoms: _604  and  _607
REMARK  234  A    between atoms: _607  and  _608
REMARK  235  A    between atoms: _610  and  _612
REMARK  236  A    between atoms: _612  and  _613
REMARK  237  A    between atoms: _612  and  _615
REMARK  238  A    between atoms: _615  and  _616
REMARK  239  A    between atoms: _618  and  _620
REMARK  240  A    between atoms: _620  and  _621
REMARK  241  A    between atoms: _620  and  _623
REMARK  242  A    between atoms: _627  and  _628
REMARK  243  A    between atoms: _633  and  _635
REMARK  244  A    between atoms: _635  and  _636
REMARK  245  A    between atoms: _635  and  _638
REMARK  246  A    between atoms: _638  and  _639
REMARK  247  A    between atoms: _644  and  _645
REMARK  248  A    between atoms: _647  and  _649
REMARK  249  A    between atoms: _649  and  _650
REMARK  250  A    between atoms: _649  and  _652
REMARK  251  A    between atoms: _652  and  _653
REMARK  252  A    between atoms: _653  and  _654
REMARK  253  A    between atoms: _654  and  _655
REMARK  254  A    between atoms: _664  and  _666
REMARK  255  A    between atoms: _666  and  _667
REMARK  256  A    between atoms: _666  and  _669
REMARK  257  A    between atoms: _669  and  _670
REMARK  258  A    between atoms: _675  and  _676
REMARK  259  A    between atoms: _678  and  _680
REMARK  260  A    between atoms: _680  and  _681
REMARK  261  A    between atoms: _680  and  _683
REMARK  262  A    between atoms: _683  and  _684
REMARK  263  A    between atoms: _690  and  _692
REMARK  264  A    between atoms: _692  and  _693
REMARK  265  A    between atoms: _692  and  _695
REMARK  266  A    between atoms: _695  and  _696
REMARK  267  A    between atoms: _698  and  _700
REMARK  268  A    between atoms: _700  and  _701
REMARK  269  A    between atoms: _700  and  _703
REMARK  270  A    between atoms: _703  and  _704
REMARK  271  A    between atoms: _710  and  _712
REMARK  272  A    between atoms: _712  and  _713
REMARK  273  A    between atoms: _712  and  _715
REMARK  274  A    between atoms: _715  and  _716
REMARK  275  A    between atoms: _716  and  _717
REMARK                            x       y       z     vdW  Elec       q    Type
REMARK                         _______ _______ _______ _____ _____    ______ ____
ROOT
ATOM      1  O   HOH     1      44.924  39.412  41.229  0.00  0.00    +0.000 OA
ENDROOT
TORSDOF 0
REMARK  Name = ../refined-set-2016/2oc2/2oc2_pocket.pdb
REMARK  275 active torsions:
REMARK  status: ('A' for Active; 'I' for Inactive)
REMARK    1  A    between atoms: _1  and  _3
REMARK    2  A    between atoms: _3  and  _4
REMARK    3  A    between atoms: _3  and  _6
REMARK    4  A    between atoms: _6  and  _7
REMARK    5  A    between atoms: _12  and  _14
REMARK    6  A    between atoms: _14  and  _15
REMARK    7  A    between atoms: _14  and  _17
REMARK    8  A    between atoms: _17  and  _18
REMARK    9  A    between atoms: _23  and  _25
REMARK   10  A    between atoms: _25  and  _26
REMARK   11  A    between atoms: _25  and  _28
REMARK   12  A    between atoms: _28  and  _29
REMARK   13  A    between atoms: _29  and  _30
REMARK   14  A    between atoms: _33  and  _35
REMARK   15  A    between atoms: _35  and  _36
REMARK   16  A    between atoms: _35  and  _38
REMARK   17  A    between atoms: _38  and  _39
REMARK   18  A    between atoms: _44  and  _45
REMARK   19  A    between atoms: _47  and  _49
REMARK   20  A    between atoms: _49  and  _50
REMARK   21  A    between atoms: _49  and  _52
REMARK   22  A    between atoms: _52  and  _53
REMARK   23  A    between atoms: _53  and  _54
REMARK   24  A    between atoms: _57  and  _59
REMARK   25  A    between atoms: _59  and  _60
REMARK   26  A    between atoms: _59  and  _62
REMARK   27  A    between atoms: _62  and  _63
REMARK   28  A    between atoms: _68  and  _70
REMARK   29  A    between atoms: _70  and  _71
REMARK   30  A    between atoms: _70  and  _73
REMARK   31  A    between atoms: _73  and  _74
REMARK   32  A    between atoms: _84  and  _86
REMARK   33  A    between atoms: _86  and  _87
REMARK   34  A    between atoms: _86  and  _89
REMARK   35  A    between atoms: _89  and  _90
REMARK   36  A    between atoms: _90  and  _91
REMARK   37  A    between atoms: _96  and  _98
REMARK   38  A    between atoms: _98  and  _99
REMARK   39  A    between atoms: _98  and  _101
REMARK   40  A    between atoms: _101  and  _102
REMARK   41  A    between atoms: _105  and  _107
REMARK   42  A    between atoms: _107  and  _108
REMARK   43  A    between atoms: _107  and  _110
REMARK   44  A    between atoms: _113  and  _115
REMARK   45  A    between atoms: _115  and  _116
REMARK   46  A    between atoms: _115  and  _118
REMARK   47  A    between atoms: _118  and  _119
REMARK   48  A    between atoms: _119  and  _247
REMARK   49  A    between atoms: _120  and  _122
REMARK   50  A    between atoms: _122  and  _123
REMARK   51  A    between atoms: _122  and  _125
REMARK   52  A    between atoms: _125  and  _126
REMARK   53  A    between atoms: _131  and  _133
REMARK   54  A    between atoms: _133  and  _134
REMARK   55  A    between atoms: _137  and  _139
REMARK   56  A    between atoms: _139  and  _140
REMARK   57  A    between atoms: _139  and  _142
REMARK   58  A    between atoms: _142  and  _143
REMARK   59  A    between atoms: _145  and  _147
REMARK   60  A    between atoms: _147  and  _148
REMARK   61  A    between atoms: _151  and  _153
REMARK   62  A    between atoms: _153  and  _154
REMARK   63  A    between atoms: _153  and  _156
REMARK   64  A    between atoms: _156  and  _157
REMARK   65  A    between atoms: _167  and  _169
REMARK   66  A    between atoms: _169  and  _170
REMARK   67  A    between atoms: _169  and  _172
REMARK   68  A    between atoms: _172  and  _173
REMARK   69  A    between atoms: _176  and  _178
REMARK   70  A    between atoms: _178  and  _179
REMARK   71  A    between atoms: _178  and  _181
REMARK   72  A    between atoms: _181  and  _182
REMARK   73  A    between atoms: _187  and  _188
REMARK   74  A    between atoms: _190  and  _192
REMARK   75  A    between atoms: _192  and  _193
REMARK   76  A    between atoms: _192  and  _195
REMARK   77  A    between atoms: _195  and  _196
REMARK   78  A    between atoms: _196  and  _197
REMARK   79  A    between atoms: _197  and  _198
REMARK   80  A    between atoms: _207  and  _209
REMARK   81  A    between atoms: _209  and  _210
REMARK   82  A    between atoms: _209  and  _212
REMARK   83  A    between atoms: _212  and  _213
REMARK   84  A    between atoms: _216  and  _218
REMARK   85  A    between atoms: _218  and  _219
REMARK   86  A    between atoms: _218  and  _221
REMARK   87  A    between atoms: _221  and  _222
REMARK   88  A    between atoms: _222  and  _223
REMARK   89  A    between atoms: _223  and  _224
REMARK   90  A    between atoms: _224  and  _225
REMARK   91  A    between atoms: _229  and  _231
REMARK   92  A    between atoms: _231  and  _232
REMARK   93  A    between atoms: _231  and  _234
REMARK   94  A    between atoms: _234  and  _235
REMARK   95  A    between atoms: _235  and  _236
REMARK   96  A    between atoms: _241  and  _243
REMARK   97  A    between atoms: _243  and  _244
REMARK   98  A    between atoms: _243  and  _246
REMARK   99  A    between atoms: _246  and  _247
REMARK  100  A    between atoms: _248  and  _250
REMARK  101  A    between atoms: _250  and  _251
REMARK  102  A    between atoms: _250  and  _253
REMARK  103  A    between atoms: _253  and  _254
REMARK  104  A    between atoms: _254  and  _255
REMARK  105  A    between atoms: _258  and  _260
REMARK  106  A    between atoms: _260  and  _261
REMARK  107  A    between atoms: _260  and  _263
REMARK  108  A    between atoms: _263  and  _264
REMARK  109  A    between atoms: _267  and  _269
REMARK  110  A    between atoms: _269  and  _270
REMARK  111  A    between atoms: _269  and  _272
REMARK  112  A    between atoms: _275  and  _277
REMARK  113  A    between atoms: _277  and  _278
REMARK  114  A    between atoms: _277  and  _280
REMARK  115  A    between atoms: _283  and  _285
REMARK  116  A    between atoms: _285  and  _286
REMARK  117  A    between atoms: _289  and  _291
REMARK  118  A    between atoms: _291  and  _292
REMARK  119  A    between atoms: _291  and  _294
REMARK  120  A    between atoms: _294  and  _295
REMARK  121  A    between atoms: _300  and  _302
REMARK  122  A    between atoms: _313  and  _316
REMARK  123  A    between atoms: _316  and  _317
REMARK  124  A    between atoms: _317  and  _318
REMARK  125  A    between atoms: _323  and  _326
REMARK  126  A    between atoms: _326  and  _327
REMARK  127  A    between atoms: _327  and  _328
REMARK  128  A    between atoms: _337  and  _338
REMARK  129  A    between atoms: _346  and  _348
REMARK  130  A    between atoms: _348  and  _349
REMARK  131  A    between atoms: _348  and  _351
REMARK  132  A    between atoms: _351  and  _352
REMARK  133  A    between atoms: _355  and  _357
REMARK  134  A    between atoms: _357  and  _358
REMARK  135  A    between atoms: _357  and  _360
REMARK  136  A    between atoms: _360  and  _361
REMARK  137  A    between atoms: _366  and  _367
REMARK  138  A    between atoms: _369  and  _371
REMARK  139  A    between atoms: _371  and  _372
REMARK  140  A    between atoms: _371  and  _374
REMARK  141  A    between atoms: _374  and  _375
REMARK  142  A    between atoms: _381  and  _383
REMARK  143  A    between atoms: _383  and  _384
REMARK  144  A    between atoms: _383  and  _386
REMARK  145  A    between atoms: _386  and  _387
REMARK  146  A    between atoms: _392  and  _393
REMARK  147  A    between atoms: _395  and  _397
REMARK  148  A    between atoms: _397  and  _398
REMARK  149  A    between atoms: _397  and  _400
REMARK  150  A    between atoms: _400  and  _401
REMARK  151  A    between atoms: _401  and  _402
REMARK  152  A    between atoms: _402  and  _403
REMARK  153  A    between atoms: _412  and  _414
REMARK  154  A    between atoms: _414  and  _415
REMARK  155  A    between atoms: _414  and  _417
REMARK  156  A    between atoms: _417  and  _418
REMARK  157  A    between atoms: _418  and  _419
REMARK  158  A    between atoms: _422  and  _424
REMARK  159  A    between atoms: _424  and  _425
REMARK  160  A    between atoms: _427  and  _429
REMARK  161  A    between atoms: _429  and  _430
REMARK  162  A    between atoms: _429  and  _432
REMARK  163  A    between atoms: _432  and  _433
REMARK  164  A    between atoms: _439  and  _440
REMARK  165  A    between atoms: _445  and  _447
REMARK  166  A    between atoms: _447  and  _448
REMARK  167  A    between atoms: _447  and  _450
REMARK  168  A    between atoms: _450  and  _451
REMARK  169  A    between atoms: _457  and  _459
REMARK  170  A    between atoms: _459  and  _460
REMARK  171  A    between atoms: _459  and  _462
REMARK  172  A    between atoms: _462  and  _463
REMARK  173  A    between atoms: _468  and  _470
REMARK  174  A    between atoms: _470  and  _471
REMARK  175  A    between atoms: _470  and  _473
REMARK  176  A    between atoms: _473  and  _474
REMARK  177  A    between atoms: _474  and  _475
REMARK  178  A    between atoms: _475  and  _476
REMARK  179  A    between atoms: _476  and  ZN_722
REMARK  180  A    between atoms: _478  and  _480
REMARK  181  A    between atoms: _480  and  _481
REMARK  182  A    between atoms: _484  and  _486
REMARK  183  A    between atoms: _486  and  _487
REMARK  184  A    between atoms: _489  and  _491
REMARK  185  A    between atoms: _491  and  _492
REMARK  186  A    between atoms: _491  and  _494
REMARK  187  A    between atoms: _494  and  _495
REMARK  188  A    between atoms: _498  and  _500
REMARK  189  A    between atoms: _500  and  _501
REMARK  190  A    between atoms: _504  and  _506
REMARK  191  A    between atoms: _506  and  _507
REMARK  192  A    between atoms: _506  and  _509
REMARK  193  A    between atoms: _509  and  _510
REMARK  194  A    between atoms: _513  and  _515
REMARK  195  A    between atoms: _515  and  _516
REMARK  196  A    between atoms: _515  and  _518
REMARK  197  A    between atoms: _518  and  _519
REMARK  198  A    between atoms: _519  and  _520
REMARK  199  A    between atoms: _520  and  _521
REMARK  200  A    between atoms: _521  and  _522
REMARK  201  A    between atoms: _526  and  _528
REMARK  202  A    between atoms: _528  and  _529
REMARK  203  A    between atoms: _528  and  _531
REMARK  204  A    between atoms: _531  and  _532
REMARK  205  A    between atoms: _538  and  _540
REMARK  206  A    between atoms: _540  and  _541
REMARK  207  A    between atoms: _540  and  _543
REMARK  208  A    between atoms: _543  and  _544
REMARK  209  A    between atoms: _550  and  _552
REMARK  210  A    between atoms: _552  and  _553
REMARK  211  A    between atoms: _552  and  _555
REMARK  212  A    between atoms: _555  and  _556
REMARK  213  A    between atoms: _558  and  _560
REMARK  214  A    between atoms: _560  and  _561
REMARK  215  A    between atoms: _560  and  _563
REMARK  216  A    between atoms: _566  and  _568
REMARK  217  A    between atoms: _568  and  _569
REMARK  218  A    between atoms: _568  and  _571
REMARK  219  A    between atoms: _571  and  _572
REMARK  220  A    between atoms: _572  and  _573
REMARK  221  A    between atoms: _573  and  _574
REMARK  222  A    between atoms: _574  and  _575
REMARK  223  A    between atoms: _579  and  _581
REMARK  224  A    between atoms: _581  and  _582
REMARK  225  A    between atoms: _581  and  _584
REMARK  226  A    between atoms: _584  and  _585
REMARK  227  A    between atoms: _591  and  _593
REMARK  228  A    between atoms: _593  and  _594
REMARK  229  A    between atoms: _593  and  _596
REMARK  230  A    between atoms: _596  and  _597
REMARK  231  A    between atoms: _602  and  _604
REMARK  232  A    between atoms: _604  and  _605
REMARK  233  A    between atoms: _604  and  _607
REMARK  234  A    between atoms: _607  and  _608
REMARK  235  A    between atoms: _610  and  _612
REMARK  236  A    between atoms: _612  and  _613
REMARK  237  A    between atoms: _612  and  _615
REMARK  238  A    between atoms: _615  and  _616
REMARK  239  A    between atoms: _618  and  _620
REMARK  240  A    between atoms: _620  and  _621
REMARK  241  A    between atoms: _620  and  _623
REMARK  242  A    between atoms: _627  and  _628
REMARK  243  A    between atoms: _633  and  _635
REMARK  244  A    between atoms: _635  and  _636
REMARK  245  A    between atoms: _635  and  _638
REMARK  246  A    between atoms: _638  and  _639
REMARK  247  A    between atoms: _644  and  _645
REMARK  248  A    between atoms: _647  and  _649
REMARK  249  A    between atoms: _649  and  _650
REMARK  250  A    between atoms: _649  and  _652
REMARK  251  A    between atoms: _652  and  _653
REMARK  252  A    between atoms: _653  and  _654
REMARK  253  A    between atoms: _654  and  _655
REMARK  254  A    between atoms: _664  and  _666
REMARK  255  A    between atoms: _666  and  _667
REMARK  256  A    between atoms: _666  and  _669
REMARK  257  A    between atoms: _669  and  _670
REMARK  258  A    between atoms: _675  and  _676
REMARK  259  A    between atoms: _678  and  _680
REMARK  260  A    between atoms: _680  and  _681
REMARK  261  A    between atoms: _680  and  _683
REMARK  262  A    between atoms: _683  and  _684
REMARK  263  A    between atoms: _690  and  _692
REMARK  264  A    between atoms: _692  and  _693
REMARK  265  A    between atoms: _692  and  _695
REMARK  266  A    between atoms: _695  and  _696
REMARK  267  A    between atoms: _698  and  _700
REMARK  268  A    between atoms: _700  and  _701
REMARK  269  A    between atoms: _700  and  _703
REMARK  270  A    between atoms: _703  and  _704
REMARK  271  A    between atoms: _710  and  _712
REMARK  272  A    between atoms: _712  and  _713
REMARK  273  A    between atoms: _712  and  _715
REMARK  274  A    between atoms: _715  and  _716
REMARK  275  A    between atoms: _716  and  _717
REMARK                            x       y       z     vdW  Elec       q    Type
REMARK                         _______ _______ _______ _____ _____    ______ ____
ROOT
ATOM      1  O   HOH     1      36.639  27.255  50.360  0.00  0.00    +0.000 OA
ENDROOT
TORSDOF 0
REMARK  Name = ../refined-set-2016/2oc2/2oc2_pocket.pdb
REMARK  275 active torsions:
REMARK  status: ('A' for Active; 'I' for Inactive)
REMARK    1  A    between atoms: _1  and  _3
REMARK    2  A    between atoms: _3  and  _4
REMARK    3  A    between atoms: _3  and  _6
REMARK    4  A    between atoms: _6  and  _7
REMARK    5  A    between atoms: _12  and  _14
REMARK    6  A    between atoms: _14  and  _15
REMARK    7  A    between atoms: _14  and  _17
REMARK    8  A    between atoms: _17  and  _18
REMARK    9  A    between atoms: _23  and  _25
REMARK   10  A    between atoms: _25  and  _26
REMARK   11  A    between atoms: _25  and  _28
REMARK   12  A    between atoms: _28  and  _29
REMARK   13  A    between atoms: _29  and  _30
REMARK   14  A    between atoms: _33  and  _35
REMARK   15  A    between atoms: _35  and  _36
REMARK   16  A    between atoms: _35  and  _38
REMARK   17  A    between atoms: _38  and  _39
REMARK   18  A    between atoms: _44  and  _45
REMARK   19  A    between atoms: _47  and  _49
REMARK   20  A    between atoms: _49  and  _50
REMARK   21  A    between atoms: _49  and  _52
REMARK   22  A    between atoms: _52  and  _53
REMARK   23  A    between atoms: _53  and  _54
REMARK   24  A    between atoms: _57  and  _59
REMARK   25  A    between atoms: _59  and  _60
REMARK   26  A    between atoms: _59  and  _62
REMARK   27  A    between atoms: _62  and  _63
REMARK   28  A    between atoms: _68  and  _70
REMARK   29  A    between atoms: _70  and  _71
REMARK   30  A    between atoms: _70  and  _73
REMARK   31  A    between atoms: _73  and  _74
REMARK   32  A    between atoms: _84  and  _86
REMARK   33  A    between atoms: _86  and  _87
REMARK   34  A    between atoms: _86  and  _89
REMARK   35  A    between atoms: _89  and  _90
REMARK   36  A    between atoms: _90  and  _91
REMARK   37  A    between atoms: _96  and  _98
REMARK   38  A    between atoms: _98  and  _99
REMARK   39  A    between atoms: _98  and  _101
REMARK   40  A    between atoms: _101  and  _102
REMARK   41  A    between atoms: _105  and  _107
REMARK   42  A    between atoms: _107  and  _108
REMARK   43  A    between atoms: _107  and  _110
REMARK   44  A    between atoms: _113  and  _115
REMARK   45  A    between atoms: _115  and  _116
REMARK   46  A    between atoms: _115  and  _118
REMARK   47  A    between atoms: _118  and  _119
REMARK   48  A    between atoms: _119  and  _247
REMARK   49  A    between atoms: _120  and  _122
REMARK   50  A    between atoms: _122  and  _123
REMARK   51  A    between atoms: _122  and  _125
REMARK   52  A    between atoms: _125  and  _126
REMARK   53  A    between atoms: _131  and  _133
REMARK   54  A    between atoms: _133  and  _134
REMARK   55  A    between atoms: _137  and  _139
REMARK   56  A    between atoms: _139  and  _140
REMARK   57  A    between atoms: _139  and  _142
REMARK   58  A    between atoms: _142  and  _143
REMARK   59  A    between atoms: _145  and  _147
REMARK   60  A    between atoms: _147  and  _148
REMARK   61  A    between atoms: _151  and  _153
REMARK   62  A    between atoms: _153  and  _154
REMARK   63  A    between atoms: _153  and  _156
REMARK   64  A    between atoms: _156  and  _157
REMARK   65  A    between atoms: _167  and  _169
REMARK   66  A    between atoms: _169  and  _170
REMARK   67  A    between atoms: _169  and  _172
REMARK   68  A    between atoms: _172  and  _173
REMARK   69  A    between atoms: _176  and  _178
REMARK   70  A    between atoms: _178  and  _179
REMARK   71  A    between atoms: _178  and  _181
REMARK   72  A    between atoms: _181  and  _182
REMARK   73  A    between atoms: _187  and  _188
REMARK   74  A    between atoms: _190  and  _192
REMARK   75  A    between atoms: _192  and  _193
REMARK   76  A    between atoms: _192  and  _195
REMARK   77  A    between atoms: _195  and  _196
REMARK   78  A    between atoms: _196  and  _197
REMARK   79  A    between atoms: _197  and  _198
REMARK   80  A    between atoms: _207  and  _209
REMARK   81  A    between atoms: _209  and  _210
REMARK   82  A    between atoms: _209  and  _212
REMARK   83  A    between atoms: _212  and  _213
REMARK   84  A    between atoms: _216  and  _218
REMARK   85  A    between atoms: _218  and  _219
REMARK   86  A    between atoms: _218  and  _221
REMARK   87  A    between atoms: _221  and  _222
REMARK   88  A    between atoms: _222  and  _223
REMARK   89  A    between atoms: _223  and  _224
REMARK   90  A    between atoms: _224  and  _225
REMARK   91  A    between atoms: _229  and  _231
REMARK   92  A    between atoms: _231  and  _232
REMARK   93  A    between atoms: _231  and  _234
REMARK   94  A    between atoms: _234  and  _235
REMARK   95  A    between atoms: _235  and  _236
REMARK   96  A    between atoms: _241  and  _243
REMARK   97  A    between atoms: _243  and  _244
REMARK   98  A    between atoms: _243  and  _246
REMARK   99  A    between atoms: _246  and  _247
REMARK  100  A    between atoms: _248  and  _250
REMARK  101  A    between atoms: _250  and  _251
REMARK  102  A    between atoms: _250  and  _253
REMARK  103  A    between atoms: _253  and  _254
REMARK  104  A    between atoms: _254  and  _255
REMARK  105  A    between atoms: _258  and  _260
REMARK  106  A    between atoms: _260  and  _261
REMARK  107  A    between atoms: _260  and  _263
REMARK  108  A    between atoms: _263  and  _264
REMARK  109  A    between atoms: _267  and  _269
REMARK  110  A    between atoms: _269  and  _270
REMARK  111  A    between atoms: _269  and  _272
REMARK  112  A    between atoms: _275  and  _277
REMARK  113  A    between atoms: _277  and  _278
REMARK  114  A    between atoms: _277  and  _280
REMARK  115  A    between atoms: _283  and  _285
REMARK  116  A    between atoms: _285  and  _286
REMARK  117  A    between atoms: _289  and  _291
REMARK  118  A    between atoms: _291  and  _292
REMARK  119  A    between atoms: _291  and  _294
REMARK  120  A    between atoms: _294  and  _295
REMARK  121  A    between atoms: _300  and  _302
REMARK  122  A    between atoms: _313  and  _316
REMARK  123  A    between atoms: _316  and  _317
REMARK  124  A    between atoms: _317  and  _318
REMARK  125  A    between atoms: _323  and  _326
REMARK  126  A    between atoms: _326  and  _327
REMARK  127  A    between atoms: _327  and  _328
REMARK  128  A    between atoms: _337  and  _338
REMARK  129  A    between atoms: _346  and  _348
REMARK  130  A    between atoms: _348  and  _349
REMARK  131  A    between atoms: _348  and  _351
REMARK  132  A    between atoms: _351  and  _352
REMARK  133  A    between atoms: _355  and  _357
REMARK  134  A    between atoms: _357  and  _358
REMARK  135  A    between atoms: _357  and  _360
REMARK  136  A    between atoms: _360  and  _361
REMARK  137  A    between atoms: _366  and  _367
REMARK  138  A    between atoms: _369  and  _371
REMARK  139  A    between atoms: _371  and  _372
REMARK  140  A    between atoms: _371  and  _374
REMARK  141  A    between atoms: _374  and  _375
REMARK  142  A    between atoms: _381  and  _383
REMARK  143  A    between atoms: _383  and  _384
REMARK  144  A    between atoms: _383  and  _386
REMARK  145  A    between atoms: _386  and  _387
REMARK  146  A    between atoms: _392  and  _393
REMARK  147  A    between atoms: _395  and  _397
REMARK  148  A    between atoms: _397  and  _398
REMARK  149  A    between atoms: _397  and  _400
REMARK  150  A    between atoms: _400  and  _401
REMARK  151  A    between atoms: _401  and  _402
REMARK  152  A    between atoms: _402  and  _403
REMARK  153  A    between atoms: _412  and  _414
REMARK  154  A    between atoms: _414  and  _415
REMARK  155  A    between atoms: _414  and  _417
REMARK  156  A    between atoms: _417  and  _418
REMARK  157  A    between atoms: _418  and  _419
REMARK  158  A    between atoms: _422  and  _424
REMARK  159  A    between atoms: _424  and  _425
REMARK  160  A    between atoms: _427  and  _429
REMARK  161  A    between atoms: _429  and  _430
REMARK  162  A    between atoms: _429  and  _432
REMARK  163  A    between atoms: _432  and  _433
REMARK  164  A    between atoms: _439  and  _440
REMARK  165  A    between atoms: _445  and  _447
REMARK  166  A    between atoms: _447  and  _448
REMARK  167  A    between atoms: _447  and  _450
REMARK  168  A    between atoms: _450  and  _451
REMARK  169  A    between atoms: _457  and  _459
REMARK  170  A    between atoms: _459  and  _460
REMARK  171  A    between atoms: _459  and  _462
REMARK  172  A    between atoms: _462  and  _463
REMARK  173  A    between atoms: _468  and  _470
REMARK  174  A    between atoms: _470  and  _471
REMARK  175  A    between atoms: _470  and  _473
REMARK  176  A    between atoms: _473  and  _474
REMARK  177  A    between atoms: _474  and  _475
REMARK  178  A    between atoms: _475  and  _476
REMARK  179  A    between atoms: _476  and  ZN_722
REMARK  180  A    between atoms: _478  and  _480
REMARK  181  A    between atoms: _480  and  _481
REMARK  182  A    between atoms: _484  and  _486
REMARK  183  A    between atoms: _486  and  _487
REMARK  184  A    between atoms: _489  and  _491
REMARK  185  A    between atoms: _491  and  _492
REMARK  186  A    between atoms: _491  and  _494
REMARK  187  A    between atoms: _494  and  _495
REMARK  188  A    between atoms: _498  and  _500
REMARK  189  A    between atoms: _500  and  _501
REMARK  190  A    between atoms: _504  and  _506
REMARK  191  A    between atoms: _506  and  _507
REMARK  192  A    between atoms: _506  and  _509
REMARK  193  A    between atoms: _509  and  _510
REMARK  194  A    between atoms: _513  and  _515
REMARK  195  A    between atoms: _515  and  _516
REMARK  196  A    between atoms: _515  and  _518
REMARK  197  A    between atoms: _518  and  _519
REMARK  198  A    between atoms: _519  and  _520
REMARK  199  A    between atoms: _520  and  _521
REMARK  200  A    between atoms: _521  and  _522
REMARK  201  A    between atoms: _526  and  _528
REMARK  202  A    between atoms: _528  and  _529
REMARK  203  A    between atoms: _528  and  _531
REMARK  204  A    between atoms: _531  and  _532
REMARK  205  A    between atoms: _538  and  _540
REMARK  206  A    between atoms: _540  and  _541
REMARK  207  A    between atoms: _540  and  _543
REMARK  208  A    between atoms: _543  and  _544
REMARK  209  A    between atoms: _550  and  _552
REMARK  210  A    between atoms: _552  and  _553
REMARK  211  A    between atoms: _552  and  _555
REMARK  212  A    between atoms: _555  and  _556
REMARK  213  A    between atoms: _558  and  _560
REMARK  214  A    between atoms: _560  and  _561
REMARK  215  A    between atoms: _560  and  _563
REMARK  216  A    between atoms: _566  and  _568
REMARK  217  A    between atoms: _568  and  _569
REMARK  218  A    between atoms: _568  and  _571
REMARK  219  A    between atoms: _571  and  _572
REMARK  220  A    between atoms: _572  and  _573
REMARK  221  A    between atoms: _573  and  _574
REMARK  222  A    between atoms: _574  and  _575
REMARK  223  A    between atoms: _579  and  _581
REMARK  224  A    between atoms: _581  and  _582
REMARK  225  A    between atoms: _581  and  _584
REMARK  226  A    between atoms: _584  and  _585
REMARK  227  A    between atoms: _591  and  _593
REMARK  228  A    between atoms: _593  and  _594
REMARK  229  A    between atoms: _593  and  _596
REMARK  230  A    between atoms: _596  and  _597
REMARK  231  A    between atoms: _602  and  _604
REMARK  232  A    between atoms: _604  and  _605
REMARK  233  A    between atoms: _604  and  _607
REMARK  234  A    between atoms: _607  and  _608
REMARK  235  A    between atoms: _610  and  _612
REMARK  236  A    between atoms: _612  and  _613
REMARK  237  A    between atoms: _612  and  _615
REMARK  238  A    between atoms: _615  and  _616
REMARK  239  A    between atoms: _618  and  _620
REMARK  240  A    between atoms: _620  and  _621
REMARK  241  A    between atoms: _620  and  _623
REMARK  242  A    between atoms: _627  and  _628
REMARK  243  A    between atoms: _633  and  _635
REMARK  244  A    between atoms: _635  and  _636
REMARK  245  A    between atoms: _635  and  _638
REMARK  246  A    between atoms: _638  and  _639
REMARK  247  A    between atoms: _644  and  _645
REMARK  248  A    between atoms: _647  and  _649
REMARK  249  A    between atoms: _649  and  _650
REMARK  250  A    between atoms: _649  and  _652
REMARK  251  A    between atoms: _652  and  _653
REMARK  252  A    between atoms: _653  and  _654
REMARK  253  A    between atoms: _654  and  _655
REMARK  254  A    between atoms: _664  and  _666
REMARK  255  A    between atoms: _666  and  _667
REMARK  256  A    between atoms: _666  and  _669
REMARK  257  A    between atoms: _669  and  _670
REMARK  258  A    between atoms: _675  and  _676
REMARK  259  A    between atoms: _678  and  _680
REMARK  260  A    between atoms: _680  and  _681
REMARK  261  A    between atoms: _680  and  _683
REMARK  262  A    between atoms: _683  and  _684
REMARK  263  A    between atoms: _690  and  _692
REMARK  264  A    between atoms: _692  and  _693
REMARK  265  A    between atoms: _692  and  _695
REMARK  266  A    between atoms: _695  and  _696
REMARK  267  A    between atoms: _698  and  _700
REMARK  268  A    between atoms: _700  and  _701
REMARK  269  A    between atoms: _700  and  _703
REMARK  270  A    between atoms: _703  and  _704
REMARK  271  A    between atoms: _710  and  _712
REMARK  272  A    between atoms: _712  and  _713
REMARK  273  A    between atoms: _712  and  _715
REMARK  274  A    between atoms: _715  and  _716
REMARK  275  A    between atoms: _716  and  _717
REMARK                            x       y       z     vdW  Elec       q    Type
REMARK                         _______ _______ _______ _____ _____    ______ ____
ROOT
ATOM      1  O   HOH     1      48.840  40.512  46.260  0.00  0.00    +0.000 OA
ENDROOT
TORSDOF 0
REMARK  Name = ../refined-set-2016/2oc2/2oc2_pocket.pdb
REMARK  275 active torsions:
REMARK  status: ('A' for Active; 'I' for Inactive)
REMARK    1  A    between atoms: _1  and  _3
REMARK    2  A    between atoms: _3  and  _4
REMARK    3  A    between atoms: _3  and  _6
REMARK    4  A    between atoms: _6  and  _7
REMARK    5  A    between atoms: _12  and  _14
REMARK    6  A    between atoms: _14  and  _15
REMARK    7  A    between atoms: _14  and  _17
REMARK    8  A    between atoms: _17  and  _18
REMARK    9  A    between atoms: _23  and  _25
REMARK   10  A    between atoms: _25  and  _26
REMARK   11  A    between atoms: _25  and  _28
REMARK   12  A    between atoms: _28  and  _29
REMARK   13  A    between atoms: _29  and  _30
REMARK   14  A    between atoms: _33  and  _35
REMARK   15  A    between atoms: _35  and  _36
REMARK   16  A    between atoms: _35  and  _38
REMARK   17  A    between atoms: _38  and  _39
REMARK   18  A    between atoms: _44  and  _45
REMARK   19  A    between atoms: _47  and  _49
REMARK   20  A    between atoms: _49  and  _50
REMARK   21  A    between atoms: _49  and  _52
REMARK   22  A    between atoms: _52  and  _53
REMARK   23  A    between atoms: _53  and  _54
REMARK   24  A    between atoms: _57  and  _59
REMARK   25  A    between atoms: _59  and  _60
REMARK   26  A    between atoms: _59  and  _62
REMARK   27  A    between atoms: _62  and  _63
REMARK   28  A    between atoms: _68  and  _70
REMARK   29  A    between atoms: _70  and  _71
REMARK   30  A    between atoms: _70  and  _73
REMARK   31  A    between atoms: _73  and  _74
REMARK   32  A    between atoms: _84  and  _86
REMARK   33  A    between atoms: _86  and  _87
REMARK   34  A    between atoms: _86  and  _89
REMARK   35  A    between atoms: _89  and  _90
REMARK   36  A    between atoms: _90  and  _91
REMARK   37  A    between atoms: _96  and  _98
REMARK   38  A    between atoms: _98  and  _99
REMARK   39  A    between atoms: _98  and  _101
REMARK   40  A    between atoms: _101  and  _102
REMARK   41  A    between atoms: _105  and  _107
REMARK   42  A    between atoms: _107  and  _108
REMARK   43  A    between atoms: _107  and  _110
REMARK   44  A    between atoms: _113  and  _115
REMARK   45  A    between atoms: _115  and  _116
REMARK   46  A    between atoms: _115  and  _118
REMARK   47  A    between atoms: _118  and  _119
REMARK   48  A    between atoms: _119  and  _247
REMARK   49  A    between atoms: _120  and  _122
REMARK   50  A    between atoms: _122  and  _123
REMARK   51  A    between atoms: _122  and  _125
REMARK   52  A    between atoms: _125  and  _126
REMARK   53  A    between atoms: _131  and  _133
REMARK   54  A    between atoms: _133  and  _134
REMARK   55  A    between atoms: _137  and  _139
REMARK   56  A    between atoms: _139  and  _140
REMARK   57  A    between atoms: _139  and  _142
REMARK   58  A    between atoms: _142  and  _143
REMARK   59  A    between atoms: _145  and  _147
REMARK   60  A    between atoms: _147  and  _148
REMARK   61  A    between atoms: _151  and  _153
REMARK   62  A    between atoms: _153  and  _154
REMARK   63  A    between atoms: _153  and  _156
REMARK   64  A    between atoms: _156  and  _157
REMARK   65  A    between atoms: _167  and  _169
REMARK   66  A    between atoms: _169  and  _170
REMARK   67  A    between atoms: _169  and  _172
REMARK   68  A    between atoms: _172  and  _173
REMARK   69  A    between atoms: _176  and  _178
REMARK   70  A    between atoms: _178  and  _179
REMARK   71  A    between atoms: _178  and  _181
REMARK   72  A    between atoms: _181  and  _182
REMARK   73  A    between atoms: _187  and  _188
REMARK   74  A    between atoms: _190  and  _192
REMARK   75  A    between atoms: _192  and  _193
REMARK   76  A    between atoms: _192  and  _195
REMARK   77  A    between atoms: _195  and  _196
REMARK   78  A    between atoms: _196  and  _197
REMARK   79  A    between atoms: _197  and  _198
REMARK   80  A    between atoms: _207  and  _209
REMARK   81  A    between atoms: _209  and  _210
REMARK   82  A    between atoms: _209  and  _212
REMARK   83  A    between atoms: _212  and  _213
REMARK   84  A    between atoms: _216  and  _218
REMARK   85  A    between atoms: _218  and  _219
REMARK   86  A    between atoms: _218  and  _221
REMARK   87  A    between atoms: _221  and  _222
REMARK   88  A    between atoms: _222  and  _223
REMARK   89  A    between atoms: _223  and  _224
REMARK   90  A    between atoms: _224  and  _225
REMARK   91  A    between atoms: _229  and  _231
REMARK   92  A    between atoms: _231  and  _232
REMARK   93  A    between atoms: _231  and  _234
REMARK   94  A    between atoms: _234  and  _235
REMARK   95  A    between atoms: _235  and  _236
REMARK   96  A    between atoms: _241  and  _243
REMARK   97  A    between atoms: _243  and  _244
REMARK   98  A    between atoms: _243  and  _246
REMARK   99  A    between atoms: _246  and  _247
REMARK  100  A    between atoms: _248  and  _250
REMARK  101  A    between atoms: _250  and  _251
REMARK  102  A    between atoms: _250  and  _253
REMARK  103  A    between atoms: _253  and  _254
REMARK  104  A    between atoms: _254  and  _255
REMARK  105  A    between atoms: _258  and  _260
REMARK  106  A    between atoms: _260  and  _261
REMARK  107  A    between atoms: _260  and  _263
REMARK  108  A    between atoms: _263  and  _264
REMARK  109  A    between atoms: _267  and  _269
REMARK  110  A    between atoms: _269  and  _270
REMARK  111  A    between atoms: _269  and  _272
REMARK  112  A    between atoms: _275  and  _277
REMARK  113  A    between atoms: _277  and  _278
REMARK  114  A    between atoms: _277  and  _280
REMARK  115  A    between atoms: _283  and  _285
REMARK  116  A    between atoms: _285  and  _286
REMARK  117  A    between atoms: _289  and  _291
REMARK  118  A    between atoms: _291  and  _292
REMARK  119  A    between atoms: _291  and  _294
REMARK  120  A    between atoms: _294  and  _295
REMARK  121  A    between atoms: _300  and  _302
REMARK  122  A    between atoms: _313  and  _316
REMARK  123  A    between atoms: _316  and  _317
REMARK  124  A    between atoms: _317  and  _318
REMARK  125  A    between atoms: _323  and  _326
REMARK  126  A    between atoms: _326  and  _327
REMARK  127  A    between atoms: _327  and  _328
REMARK  128  A    between atoms: _337  and  _338
REMARK  129  A    between atoms: _346  and  _348
REMARK  130  A    between atoms: _348  and  _349
REMARK  131  A    between atoms: _348  and  _351
REMARK  132  A    between atoms: _351  and  _352
REMARK  133  A    between atoms: _355  and  _357
REMARK  134  A    between atoms: _357  and  _358
REMARK  135  A    between atoms: _357  and  _360
REMARK  136  A    between atoms: _360  and  _361
REMARK  137  A    between atoms: _366  and  _367
REMARK  138  A    between atoms: _369  and  _371
REMARK  139  A    between atoms: _371  and  _372
REMARK  140  A    between atoms: _371  and  _374
REMARK  141  A    between atoms: _374  and  _375
REMARK  142  A    between atoms: _381  and  _383
REMARK  143  A    between atoms: _383  and  _384
REMARK  144  A    between atoms: _383  and  _386
REMARK  145  A    between atoms: _386  and  _387
REMARK  146  A    between atoms: _392  and  _393
REMARK  147  A    between atoms: _395  and  _397
REMARK  148  A    between atoms: _397  and  _398
REMARK  149  A    between atoms: _397  and  _400
REMARK  150  A    between atoms: _400  and  _401
REMARK  151  A    between atoms: _401  and  _402
REMARK  152  A    between atoms: _402  and  _403
REMARK  153  A    between atoms: _412  and  _414
REMARK  154  A    between atoms: _414  and  _415
REMARK  155  A    between atoms: _414  and  _417
REMARK  156  A    between atoms: _417  and  _418
REMARK  157  A    between atoms: _418  and  _419
REMARK  158  A    between atoms: _422  and  _424
REMARK  159  A    between atoms: _424  and  _425
REMARK  160  A    between atoms: _427  and  _429
REMARK  161  A    between atoms: _429  and  _430
REMARK  162  A    between atoms: _429  and  _432
REMARK  163  A    between atoms: _432  and  _433
REMARK  164  A    between atoms: _439  and  _440
REMARK  165  A    between atoms: _445  and  _447
REMARK  166  A    between atoms: _447  and  _448
REMARK  167  A    between atoms: _447  and  _450
REMARK  168  A    between atoms: _450  and  _451
REMARK  169  A    between atoms: _457  and  _459
REMARK  170  A    between atoms: _459  and  _460
REMARK  171  A    between atoms: _459  and  _462
REMARK  172  A    between atoms: _462  and  _463
REMARK  173  A    between atoms: _468  and  _470
REMARK  174  A    between atoms: _470  and  _471
REMARK  175  A    between atoms: _470  and  _473
REMARK  176  A    between atoms: _473  and  _474
REMARK  177  A    between atoms: _474  and  _475
REMARK  178  A    between atoms: _475  and  _476
REMARK  179  A    between atoms: _476  and  ZN_722
REMARK  180  A    between atoms: _478  and  _480
REMARK  181  A    between atoms: _480  and  _481
REMARK  182  A    between atoms: _484  and  _486
REMARK  183  A    between atoms: _486  and  _487
REMARK  184  A    between atoms: _489  and  _491
REMARK  185  A    between atoms: _491  and  _492
REMARK  186  A    between atoms: _491  and  _494
REMARK  187  A    between atoms: _494  and  _495
REMARK  188  A    between atoms: _498  and  _500
REMARK  189  A    between atoms: _500  and  _501
REMARK  190  A    between atoms: _504  and  _506
REMARK  191  A    between atoms: _506  and  _507
REMARK  192  A    between atoms: _506  and  _509
REMARK  193  A    between atoms: _509  and  _510
REMARK  194  A    between atoms: _513  and  _515
REMARK  195  A    between atoms: _515  and  _516
REMARK  196  A    between atoms: _515  and  _518
REMARK  197  A    between atoms: _518  and  _519
REMARK  198  A    between atoms: _519  and  _520
REMARK  199  A    between atoms: _520  and  _521
REMARK  200  A    between atoms: _521  and  _522
REMARK  201  A    between atoms: _526  and  _528
REMARK  202  A    between atoms: _528  and  _529
REMARK  203  A    between atoms: _528  and  _531
REMARK  204  A    between atoms: _531  and  _532
REMARK  205  A    between atoms: _538  and  _540
REMARK  206  A    between atoms: _540  and  _541
REMARK  207  A    between atoms: _540  and  _543
REMARK  208  A    between atoms: _543  and  _544
REMARK  209  A    between atoms: _550  and  _552
REMARK  210  A    between atoms: _552  and  _553
REMARK  211  A    between atoms: _552  and  _555
REMARK  212  A    between atoms: _555  and  _556
REMARK  213  A    between atoms: _558  and  _560
REMARK  214  A    between atoms: _560  and  _561
REMARK  215  A    between atoms: _560  and  _563
REMARK  216  A    between atoms: _566  and  _568
REMARK  217  A    between atoms: _568  and  _569
REMARK  218  A    between atoms: _568  and  _571
REMARK  219  A    between atoms: _571  and  _572
REMARK  220  A    between atoms: _572  and  _573
REMARK  221  A    between atoms: _573  and  _574
REMARK  222  A    between atoms: _574  and  _575
REMARK  223  A    between atoms: _579  and  _581
REMARK  224  A    between atoms: _581  and  _582
REMARK  225  A    between atoms: _581  and  _584
REMARK  226  A    between atoms: _584  and  _585
REMARK  227  A    between atoms: _591  and  _593
REMARK  228  A    between atoms: _593  and  _594
REMARK  229  A    between atoms: _593  and  _596
REMARK  230  A    between atoms: _596  and  _597
REMARK  231  A    between atoms: _602  and  _604
REMARK  232  A    between atoms: _604  and  _605
REMARK  233  A    between atoms: _604  and  _607
REMARK  234  A    between atoms: _607  and  _608
REMARK  235  A    between atoms: _610  and  _612
REMARK  236  A    between atoms: _612  and  _613
REMARK  237  A    between atoms: _612  and  _615
REMARK  238  A    between atoms: _615  and  _616
REMARK  239  A    between atoms: _618  and  _620
REMARK  240  A    between atoms: _620  and  _621
REMARK  241  A    between atoms: _620  and  _623
REMARK  242  A    between atoms: _627  and  _628
REMARK  243  A    between atoms: _633  and  _635
REMARK  244  A    between atoms: _635  and  _636
REMARK  245  A    between atoms: _635  and  _638
REMARK  246  A    between atoms: _638  and  _639
REMARK  247  A    between atoms: _644  and  _645
REMARK  248  A    between atoms: _647  and  _649
REMARK  249  A    between atoms: _649  and  _650
REMARK  250  A    between atoms: _649  and  _652
REMARK  251  A    between atoms: _652  and  _653
REMARK  252  A    between atoms: _653  and  _654
REMARK  253  A    between atoms: _654  and  _655
REMARK  254  A    between atoms: _664  and  _666
REMARK  255  A    between atoms: _666  and  _667
REMARK  256  A    between atoms: _666  and  _669
REMARK  257  A    between atoms: _669  and  _670
REMARK  258  A    between atoms: _675  and  _676
REMARK  259  A    between atoms: _678  and  _680
REMARK  260  A    between atoms: _680  and  _681
REMARK  261  A    between atoms: _680  and  _683
REMARK  262  A    between atoms: _683  and  _684
REMARK  263  A    between atoms: _690  and  _692
REMARK  264  A    between atoms: _692  and  _693
REMARK  265  A    between atoms: _692  and  _695
REMARK  266  A    between atoms: _695  and  _696
REMARK  267  A    between atoms: _698  and  _700
REMARK  268  A    between atoms: _700  and  _701
REMARK  269  A    between atoms: _700  and  _703
REMARK  270  A    between atoms: _703  and  _704
REMARK  271  A    between atoms: _710  and  _712
REMARK  272  A    between atoms: _712  and  _713
REMARK  273  A    between atoms: _712  and  _715
REMARK  274  A    between atoms: _715  and  _716
REMARK  275  A    between atoms: _716  and  _717
REMARK                            x       y       z     vdW  Elec       q    Type
REMARK                         _______ _______ _______ _____ _____    ______ ____
ROOT
ATOM      1  O   HOH     1      52.285  34.488  36.735  0.00  0.00    +0.000 OA
ENDROOT
TORSDOF 0
REMARK  Name = ../refined-set-2016/2oc2/2oc2_pocket.pdb
REMARK  275 active torsions:
REMARK  status: ('A' for Active; 'I' for Inactive)
REMARK    1  A    between atoms: _1  and  _3
REMARK    2  A    between atoms: _3  and  _4
REMARK    3  A    between atoms: _3  and  _6
REMARK    4  A    between atoms: _6  and  _7
REMARK    5  A    between atoms: _12  and  _14
REMARK    6  A    between atoms: _14  and  _15
REMARK    7  A    between atoms: _14  and  _17
REMARK    8  A    between atoms: _17  and  _18
REMARK    9  A    between atoms: _23  and  _25
REMARK   10  A    between atoms: _25  and  _26
REMARK   11  A    between atoms: _25  and  _28
REMARK   12  A    between atoms: _28  and  _29
REMARK   13  A    between atoms: _29  and  _30
REMARK   14  A    between atoms: _33  and  _35
REMARK   15  A    between atoms: _35  and  _36
REMARK   16  A    between atoms: _35  and  _38
REMARK   17  A    between atoms: _38  and  _39
REMARK   18  A    between atoms: _44  and  _45
REMARK   19  A    between atoms: _47  and  _49
REMARK   20  A    between atoms: _49  and  _50
REMARK   21  A    between atoms: _49  and  _52
REMARK   22  A    between atoms: _52  and  _53
REMARK   23  A    between atoms: _53  and  _54
REMARK   24  A    between atoms: _57  and  _59
REMARK   25  A    between atoms: _59  and  _60
REMARK   26  A    between atoms: _59  and  _62
REMARK   27  A    between atoms: _62  and  _63
REMARK   28  A    between atoms: _68  and  _70
REMARK   29  A    between atoms: _70  and  _71
REMARK   30  A    between atoms: _70  and  _73
REMARK   31  A    between atoms: _73  and  _74
REMARK   32  A    between atoms: _84  and  _86
REMARK   33  A    between atoms: _86  and  _87
REMARK   34  A    between atoms: _86  and  _89
REMARK   35  A    between atoms: _89  and  _90
REMARK   36  A    between atoms: _90  and  _91
REMARK   37  A    between atoms: _96  and  _98
REMARK   38  A    between atoms: _98  and  _99
REMARK   39  A    between atoms: _98  and  _101
REMARK   40  A    between atoms: _101  and  _102
REMARK   41  A    between atoms: _105  and  _107
REMARK   42  A    between atoms: _107  and  _108
REMARK   43  A    between atoms: _107  and  _110
REMARK   44  A    between atoms: _113  and  _115
REMARK   45  A    between atoms: _115  and  _116
REMARK   46  A    between atoms: _115  and  _118
REMARK   47  A    between atoms: _118  and  _119
REMARK   48  A    between atoms: _119  and  _247
REMARK   49  A    between atoms: _120  and  _122
REMARK   50  A    between atoms: _122  and  _123
REMARK   51  A    between atoms: _122  and  _125
REMARK   52  A    between atoms: _125  and  _126
REMARK   53  A    between atoms: _131  and  _133
REMARK   54  A    between atoms: _133  and  _134
REMARK   55  A    between atoms: _137  and  _139
REMARK   56  A    between atoms: _139  and  _140
REMARK   57  A    between atoms: _139  and  _142
REMARK   58  A    between atoms: _142  and  _143
REMARK   59  A    between atoms: _145  and  _147
REMARK   60  A    between atoms: _147  and  _148
REMARK   61  A    between atoms: _151  and  _153
REMARK   62  A    between atoms: _153  and  _154
REMARK   63  A    between atoms: _153  and  _156
REMARK   64  A    between atoms: _156  and  _157
REMARK   65  A    between atoms: _167  and  _169
REMARK   66  A    between atoms: _169  and  _170
REMARK   67  A    between atoms: _169  and  _172
REMARK   68  A    between atoms: _172  and  _173
REMARK   69  A    between atoms: _176  and  _178
REMARK   70  A    between atoms: _178  and  _179
REMARK   71  A    between atoms: _178  and  _181
REMARK   72  A    between atoms: _181  and  _182
REMARK   73  A    between atoms: _187  and  _188
REMARK   74  A    between atoms: _190  and  _192
REMARK   75  A    between atoms: _192  and  _193
REMARK   76  A    between atoms: _192  and  _195
REMARK   77  A    between atoms: _195  and  _196
REMARK   78  A    between atoms: _196  and  _197
REMARK   79  A    between atoms: _197  and  _198
REMARK   80  A    between atoms: _207  and  _209
REMARK   81  A    between atoms: _209  and  _210
REMARK   82  A    between atoms: _209  and  _212
REMARK   83  A    between atoms: _212  and  _213
REMARK   84  A    between atoms: _216  and  _218
REMARK   85  A    between atoms: _218  and  _219
REMARK   86  A    between atoms: _218  and  _221
REMARK   87  A    between atoms: _221  and  _222
REMARK   88  A    between atoms: _222  and  _223
REMARK   89  A    between atoms: _223  and  _224
REMARK   90  A    between atoms: _224  and  _225
REMARK   91  A    between atoms: _229  and  _231
REMARK   92  A    between atoms: _231  and  _232
REMARK   93  A    between atoms: _231  and  _234
REMARK   94  A    between atoms: _234  and  _235
REMARK   95  A    between atoms: _235  and  _236
REMARK   96  A    between atoms: _241  and  _243
REMARK   97  A    between atoms: _243  and  _244
REMARK   98  A    between atoms: _243  and  _246
REMARK   99  A    between atoms: _246  and  _247
REMARK  100  A    between atoms: _248  and  _250
REMARK  101  A    between atoms: _250  and  _251
REMARK  102  A    between atoms: _250  and  _253
REMARK  103  A    between atoms: _253  and  _254
REMARK  104  A    between atoms: _254  and  _255
REMARK  105  A    between atoms: _258  and  _260
REMARK  106  A    between atoms: _260  and  _261
REMARK  107  A    between atoms: _260  and  _263
REMARK  108  A    between atoms: _263  and  _264
REMARK  109  A    between atoms: _267  and  _269
REMARK  110  A    between atoms: _269  and  _270
REMARK  111  A    between atoms: _269  and  _272
REMARK  112  A    between atoms: _275  and  _277
REMARK  113  A    between atoms: _277  and  _278
REMARK  114  A    between atoms: _277  and  _280
REMARK  115  A    between atoms: _283  and  _285
REMARK  116  A    between atoms: _285  and  _286
REMARK  117  A    between atoms: _289  and  _291
REMARK  118  A    between atoms: _291  and  _292
REMARK  119  A    between atoms: _291  and  _294
REMARK  120  A    between atoms: _294  and  _295
REMARK  121  A    between atoms: _300  and  _302
REMARK  122  A    between atoms: _313  and  _316
REMARK  123  A    between atoms: _316  and  _317
REMARK  124  A    between atoms: _317  and  _318
REMARK  125  A    between atoms: _323  and  _326
REMARK  126  A    between atoms: _326  and  _327
REMARK  127  A    between atoms: _327  and  _328
REMARK  128  A    between atoms: _337  and  _338
REMARK  129  A    between atoms: _346  and  _348
REMARK  130  A    between atoms: _348  and  _349
REMARK  131  A    between atoms: _348  and  _351
REMARK  132  A    between atoms: _351  and  _352
REMARK  133  A    between atoms: _355  and  _357
REMARK  134  A    between atoms: _357  and  _358
REMARK  135  A    between atoms: _357  and  _360
REMARK  136  A    between atoms: _360  and  _361
REMARK  137  A    between atoms: _366  and  _367
REMARK  138  A    between atoms: _369  and  _371
REMARK  139  A    between atoms: _371  and  _372
REMARK  140  A    between atoms: _371  and  _374
REMARK  141  A    between atoms: _374  and  _375
REMARK  142  A    between atoms: _381  and  _383
REMARK  143  A    between atoms: _383  and  _384
REMARK  144  A    between atoms: _383  and  _386
REMARK  145  A    between atoms: _386  and  _387
REMARK  146  A    between atoms: _392  and  _393
REMARK  147  A    between atoms: _395  and  _397
REMARK  148  A    between atoms: _397  and  _398
REMARK  149  A    between atoms: _397  and  _400
REMARK  150  A    between atoms: _400  and  _401
REMARK  151  A    between atoms: _401  and  _402
REMARK  152  A    between atoms: _402  and  _403
REMARK  153  A    between atoms: _412  and  _414
REMARK  154  A    between atoms: _414  and  _415
REMARK  155  A    between atoms: _414  and  _417
REMARK  156  A    between atoms: _417  and  _418
REMARK  157  A    between atoms: _418  and  _419
REMARK  158  A    between atoms: _422  and  _424
REMARK  159  A    between atoms: _424  and  _425
REMARK  160  A    between atoms: _427  and  _429
REMARK  161  A    between atoms: _429  and  _430
REMARK  162  A    between atoms: _429  and  _432
REMARK  163  A    between atoms: _432  and  _433
REMARK  164  A    between atoms: _439  and  _440
REMARK  165  A    between atoms: _445  and  _447
REMARK  166  A    between atoms: _447  and  _448
REMARK  167  A    between atoms: _447  and  _450
REMARK  168  A    between atoms: _450  and  _451
REMARK  169  A    between atoms: _457  and  _459
REMARK  170  A    between atoms: _459  and  _460
REMARK  171  A    between atoms: _459  and  _462
REMARK  172  A    between atoms: _462  and  _463
REMARK  173  A    between atoms: _468  and  _470
REMARK  174  A    between atoms: _470  and  _471
REMARK  175  A    between atoms: _470  and  _473
REMARK  176  A    between atoms: _473  and  _474
REMARK  177  A    between atoms: _474  and  _475
REMARK  178  A    between atoms: _475  and  _476
REMARK  179  A    between atoms: _476  and  ZN_722
REMARK  180  A    between atoms: _478  and  _480
REMARK  181  A    between atoms: _480  and  _481
REMARK  182  A    between atoms: _484  and  _486
REMARK  183  A    between atoms: _486  and  _487
REMARK  184  A    between atoms: _489  and  _491
REMARK  185  A    between atoms: _491  and  _492
REMARK  186  A    between atoms: _491  and  _494
REMARK  187  A    between atoms: _494  and  _495
REMARK  188  A    between atoms: _498  and  _500
REMARK  189  A    between atoms: _500  and  _501
REMARK  190  A    between atoms: _504  and  _506
REMARK  191  A    between atoms: _506  and  _507
REMARK  192  A    between atoms: _506  and  _509
REMARK  193  A    between atoms: _509  and  _510
REMARK  194  A    between atoms: _513  and  _515
REMARK  195  A    between atoms: _515  and  _516
REMARK  196  A    between atoms: _515  and  _518
REMARK  197  A    between atoms: _518  and  _519
REMARK  198  A    between atoms: _519  and  _520
REMARK  199  A    between atoms: _520  and  _521
REMARK  200  A    between atoms: _521  and  _522
REMARK  201  A    between atoms: _526  and  _528
REMARK  202  A    between atoms: _528  and  _529
REMARK  203  A    between atoms: _528  and  _531
REMARK  204  A    between atoms: _531  and  _532
REMARK  205  A    between atoms: _538  and  _540
REMARK  206  A    between atoms: _540  and  _541
REMARK  207  A    between atoms: _540  and  _543
REMARK  208  A    between atoms: _543  and  _544
REMARK  209  A    between atoms: _550  and  _552
REMARK  210  A    between atoms: _552  and  _553
REMARK  211  A    between atoms: _552  and  _555
REMARK  212  A    between atoms: _555  and  _556
REMARK  213  A    between atoms: _558  and  _560
REMARK  214  A    between atoms: _560  and  _561
REMARK  215  A    between atoms: _560  and  _563
REMARK  216  A    between atoms: _566  and  _568
REMARK  217  A    between atoms: _568  and  _569
REMARK  218  A    between atoms: _568  and  _571
REMARK  219  A    between atoms: _571  and  _572
REMARK  220  A    between atoms: _572  and  _573
REMARK  221  A    between atoms: _573  and  _574
REMARK  222  A    between atoms: _574  and  _575
REMARK  223  A    between atoms: _579  and  _581
REMARK  224  A    between atoms: _581  and  _582
REMARK  225  A    between atoms: _581  and  _584
REMARK  226  A    between atoms: _584  and  _585
REMARK  227  A    between atoms: _591  and  _593
REMARK  228  A    between atoms: _593  and  _594
REMARK  229  A    between atoms: _593  and  _596
REMARK  230  A    between atoms: _596  and  _597
REMARK  231  A    between atoms: _602  and  _604
REMARK  232  A    between atoms: _604  and  _605
REMARK  233  A    between atoms: _604  and  _607
REMARK  234  A    between atoms: _607  and  _608
REMARK  235  A    between atoms: _610  and  _612
REMARK  236  A    between atoms: _612  and  _613
REMARK  237  A    between atoms: _612  and  _615
REMARK  238  A    between atoms: _615  and  _616
REMARK  239  A    between atoms: _618  and  _620
REMARK  240  A    between atoms: _620  and  _621
REMARK  241  A    between atoms: _620  and  _623
REMARK  242  A    between atoms: _627  and  _628
REMARK  243  A    between atoms: _633  and  _635
REMARK  244  A    between atoms: _635  and  _636
REMARK  245  A    between atoms: _635  and  _638
REMARK  246  A    between atoms: _638  and  _639
REMARK  247  A    between atoms: _644  and  _645
REMARK  248  A    between atoms: _647  and  _649
REMARK  249  A    between atoms: _649  and  _650
REMARK  250  A    between atoms: _649  and  _652
REMARK  251  A    between atoms: _652  and  _653
REMARK  252  A    between atoms: _653  and  _654
REMARK  253  A    between atoms: _654  and  _655
REMARK  254  A    between atoms: _664  and  _666
REMARK  255  A    between atoms: _666  and  _667
REMARK  256  A    between atoms: _666  and  _669
REMARK  257  A    between atoms: _669  and  _670
REMARK  258  A    between atoms: _675  and  _676
REMARK  259  A    between atoms: _678  and  _680
REMARK  260  A    between atoms: _680  and  _681
REMARK  261  A    between atoms: _680  and  _683
REMARK  262  A    between atoms: _683  and  _684
REMARK  263  A    between atoms: _690  and  _692
REMARK  264  A    between atoms: _692  and  _693
REMARK  265  A    between atoms: _692  and  _695
REMARK  266  A    between atoms: _695  and  _696
REMARK  267  A    between atoms: _698  and  _700
REMARK  268  A    between atoms: _700  and  _701
REMARK  269  A    between atoms: _700  and  _703
REMARK  270  A    between atoms: _703  and  _704
REMARK  271  A    between atoms: _710  and  _712
REMARK  272  A    between atoms: _712  and  _713
REMARK  273  A    between atoms: _712  and  _715
REMARK  274  A    between atoms: _715  and  _716
REMARK  275  A    between atoms: _716  and  _717
REMARK                            x       y       z     vdW  Elec       q    Type
REMARK                         _______ _______ _______ _____ _____    ______ ____
ROOT
ATOM      1  O   HOH     1      50.913  36.375  37.939  0.00  0.00    +0.000 OA
ENDROOT
TORSDOF 0
REMARK  Name = ../refined-set-2016/2oc2/2oc2_pocket.pdb
REMARK  275 active torsions:
REMARK  status: ('A' for Active; 'I' for Inactive)
REMARK    1  A    between atoms: _1  and  _3
REMARK    2  A    between atoms: _3  and  _4
REMARK    3  A    between atoms: _3  and  _6
REMARK    4  A    between atoms: _6  and  _7
REMARK    5  A    between atoms: _12  and  _14
REMARK    6  A    between atoms: _14  and  _15
REMARK    7  A    between atoms: _14  and  _17
REMARK    8  A    between atoms: _17  and  _18
REMARK    9  A    between atoms: _23  and  _25
REMARK   10  A    between atoms: _25  and  _26
REMARK   11  A    between atoms: _25  and  _28
REMARK   12  A    between atoms: _28  and  _29
REMARK   13  A    between atoms: _29  and  _30
REMARK   14  A    between atoms: _33  and  _35
REMARK   15  A    between atoms: _35  and  _36
REMARK   16  A    between atoms: _35  and  _38
REMARK   17  A    between atoms: _38  and  _39
REMARK   18  A    between atoms: _44  and  _45
REMARK   19  A    between atoms: _47  and  _49
REMARK   20  A    between atoms: _49  and  _50
REMARK   21  A    between atoms: _49  and  _52
REMARK   22  A    between atoms: _52  and  _53
REMARK   23  A    between atoms: _53  and  _54
REMARK   24  A    between atoms: _57  and  _59
REMARK   25  A    between atoms: _59  and  _60
REMARK   26  A    between atoms: _59  and  _62
REMARK   27  A    between atoms: _62  and  _63
REMARK   28  A    between atoms: _68  and  _70
REMARK   29  A    between atoms: _70  and  _71
REMARK   30  A    between atoms: _70  and  _73
REMARK   31  A    between atoms: _73  and  _74
REMARK   32  A    between atoms: _84  and  _86
REMARK   33  A    between atoms: _86  and  _87
REMARK   34  A    between atoms: _86  and  _89
REMARK   35  A    between atoms: _89  and  _90
REMARK   36  A    between atoms: _90  and  _91
REMARK   37  A    between atoms: _96  and  _98
REMARK   38  A    between atoms: _98  and  _99
REMARK   39  A    between atoms: _98  and  _101
REMARK   40  A    between atoms: _101  and  _102
REMARK   41  A    between atoms: _105  and  _107
REMARK   42  A    between atoms: _107  and  _108
REMARK   43  A    between atoms: _107  and  _110
REMARK   44  A    between atoms: _113  and  _115
REMARK   45  A    between atoms: _115  and  _116
REMARK   46  A    between atoms: _115  and  _118
REMARK   47  A    between atoms: _118  and  _119
REMARK   48  A    between atoms: _119  and  _247
REMARK   49  A    between atoms: _120  and  _122
REMARK   50  A    between atoms: _122  and  _123
REMARK   51  A    between atoms: _122  and  _125
REMARK   52  A    between atoms: _125  and  _126
REMARK   53  A    between atoms: _131  and  _133
REMARK   54  A    between atoms: _133  and  _134
REMARK   55  A    between atoms: _137  and  _139
REMARK   56  A    between atoms: _139  and  _140
REMARK   57  A    between atoms: _139  and  _142
REMARK   58  A    between atoms: _142  and  _143
REMARK   59  A    between atoms: _145  and  _147
REMARK   60  A    between atoms: _147  and  _148
REMARK   61  A    between atoms: _151  and  _153
REMARK   62  A    between atoms: _153  and  _154
REMARK   63  A    between atoms: _153  and  _156
REMARK   64  A    between atoms: _156  and  _157
REMARK   65  A    between atoms: _167  and  _169
REMARK   66  A    between atoms: _169  and  _170
REMARK   67  A    between atoms: _169  and  _172
REMARK   68  A    between atoms: _172  and  _173
REMARK   69  A    between atoms: _176  and  _178
REMARK   70  A    between atoms: _178  and  _179
REMARK   71  A    between atoms: _178  and  _181
REMARK   72  A    between atoms: _181  and  _182
REMARK   73  A    between atoms: _187  and  _188
REMARK   74  A    between atoms: _190  and  _192
REMARK   75  A    between atoms: _192  and  _193
REMARK   76  A    between atoms: _192  and  _195
REMARK   77  A    between atoms: _195  and  _196
REMARK   78  A    between atoms: _196  and  _197
REMARK   79  A    between atoms: _197  and  _198
REMARK   80  A    between atoms: _207  and  _209
REMARK   81  A    between atoms: _209  and  _210
REMARK   82  A    between atoms: _209  and  _212
REMARK   83  A    between atoms: _212  and  _213
REMARK   84  A    between atoms: _216  and  _218
REMARK   85  A    between atoms: _218  and  _219
REMARK   86  A    between atoms: _218  and  _221
REMARK   87  A    between atoms: _221  and  _222
REMARK   88  A    between atoms: _222  and  _223
REMARK   89  A    between atoms: _223  and  _224
REMARK   90  A    between atoms: _224  and  _225
REMARK   91  A    between atoms: _229  and  _231
REMARK   92  A    between atoms: _231  and  _232
REMARK   93  A    between atoms: _231  and  _234
REMARK   94  A    between atoms: _234  and  _235
REMARK   95  A    between atoms: _235  and  _236
REMARK   96  A    between atoms: _241  and  _243
REMARK   97  A    between atoms: _243  and  _244
REMARK   98  A    between atoms: _243  and  _246
REMARK   99  A    between atoms: _246  and  _247
REMARK  100  A    between atoms: _248  and  _250
REMARK  101  A    between atoms: _250  and  _251
REMARK  102  A    between atoms: _250  and  _253
REMARK  103  A    between atoms: _253  and  _254
REMARK  104  A    between atoms: _254  and  _255
REMARK  105  A    between atoms: _258  and  _260
REMARK  106  A    between atoms: _260  and  _261
REMARK  107  A    between atoms: _260  and  _263
REMARK  108  A    between atoms: _263  and  _264
REMARK  109  A    between atoms: _267  and  _269
REMARK  110  A    between atoms: _269  and  _270
REMARK  111  A    between atoms: _269  and  _272
REMARK  112  A    between atoms: _275  and  _277
REMARK  113  A    between atoms: _277  and  _278
REMARK  114  A    between atoms: _277  and  _280
REMARK  115  A    between atoms: _283  and  _285
REMARK  116  A    between atoms: _285  and  _286
REMARK  117  A    between atoms: _289  and  _291
REMARK  118  A    between atoms: _291  and  _292
REMARK  119  A    between atoms: _291  and  _294
REMARK  120  A    between atoms: _294  and  _295
REMARK  121  A    between atoms: _300  and  _302
REMARK  122  A    between atoms: _313  and  _316
REMARK  123  A    between atoms: _316  and  _317
REMARK  124  A    between atoms: _317  and  _318
REMARK  125  A    between atoms: _323  and  _326
REMARK  126  A    between atoms: _326  and  _327
REMARK  127  A    between atoms: _327  and  _328
REMARK  128  A    between atoms: _337  and  _338
REMARK  129  A    between atoms: _346  and  _348
REMARK  130  A    between atoms: _348  and  _349
REMARK  131  A    between atoms: _348  and  _351
REMARK  132  A    between atoms: _351  and  _352
REMARK  133  A    between atoms: _355  and  _357
REMARK  134  A    between atoms: _357  and  _358
REMARK  135  A    between atoms: _357  and  _360
REMARK  136  A    between atoms: _360  and  _361
REMARK  137  A    between atoms: _366  and  _367
REMARK  138  A    between atoms: _369  and  _371
REMARK  139  A    between atoms: _371  and  _372
REMARK  140  A    between atoms: _371  and  _374
REMARK  141  A    between atoms: _374  and  _375
REMARK  142  A    between atoms: _381  and  _383
REMARK  143  A    between atoms: _383  and  _384
REMARK  144  A    between atoms: _383  and  _386
REMARK  145  A    between atoms: _386  and  _387
REMARK  146  A    between atoms: _392  and  _393
REMARK  147  A    between atoms: _395  and  _397
REMARK  148  A    between atoms: _397  and  _398
REMARK  149  A    between atoms: _397  and  _400
REMARK  150  A    between atoms: _400  and  _401
REMARK  151  A    between atoms: _401  and  _402
REMARK  152  A    between atoms: _402  and  _403
REMARK  153  A    between atoms: _412  and  _414
REMARK  154  A    between atoms: _414  and  _415
REMARK  155  A    between atoms: _414  and  _417
REMARK  156  A    between atoms: _417  and  _418
REMARK  157  A    between atoms: _418  and  _419
REMARK  158  A    between atoms: _422  and  _424
REMARK  159  A    between atoms: _424  and  _425
REMARK  160  A    between atoms: _427  and  _429
REMARK  161  A    between atoms: _429  and  _430
REMARK  162  A    between atoms: _429  and  _432
REMARK  163  A    between atoms: _432  and  _433
REMARK  164  A    between atoms: _439  and  _440
REMARK  165  A    between atoms: _445  and  _447
REMARK  166  A    between atoms: _447  and  _448
REMARK  167  A    between atoms: _447  and  _450
REMARK  168  A    between atoms: _450  and  _451
REMARK  169  A    between atoms: _457  and  _459
REMARK  170  A    between atoms: _459  and  _460
REMARK  171  A    between atoms: _459  and  _462
REMARK  172  A    between atoms: _462  and  _463
REMARK  173  A    between atoms: _468  and  _470
REMARK  174  A    between atoms: _470  and  _471
REMARK  175  A    between atoms: _470  and  _473
REMARK  176  A    between atoms: _473  and  _474
REMARK  177  A    between atoms: _474  and  _475
REMARK  178  A    between atoms: _475  and  _476
REMARK  179  A    between atoms: _476  and  ZN_722
REMARK  180  A    between atoms: _478  and  _480
REMARK  181  A    between atoms: _480  and  _481
REMARK  182  A    between atoms: _484  and  _486
REMARK  183  A    between atoms: _486  and  _487
REMARK  184  A    between atoms: _489  and  _491
REMARK  185  A    between atoms: _491  and  _492
REMARK  186  A    between atoms: _491  and  _494
REMARK  187  A    between atoms: _494  and  _495
REMARK  188  A    between atoms: _498  and  _500
REMARK  189  A    between atoms: _500  and  _501
REMARK  190  A    between atoms: _504  and  _506
REMARK  191  A    between atoms: _506  and  _507
REMARK  192  A    between atoms: _506  and  _509
REMARK  193  A    between atoms: _509  and  _510
REMARK  194  A    between atoms: _513  and  _515
REMARK  195  A    between atoms: _515  and  _516
REMARK  196  A    between atoms: _515  and  _518
REMARK  197  A    between atoms: _518  and  _519
REMARK  198  A    between atoms: _519  and  _520
REMARK  199  A    between atoms: _520  and  _521
REMARK  200  A    between atoms: _521  and  _522
REMARK  201  A    between atoms: _526  and  _528
REMARK  202  A    between atoms: _528  and  _529
REMARK  203  A    between atoms: _528  and  _531
REMARK  204  A    between atoms: _531  and  _532
REMARK  205  A    between atoms: _538  and  _540
REMARK  206  A    between atoms: _540  and  _541
REMARK  207  A    between atoms: _540  and  _543
REMARK  208  A    between atoms: _543  and  _544
REMARK  209  A    between atoms: _550  and  _552
REMARK  210  A    between atoms: _552  and  _553
REMARK  211  A    between atoms: _552  and  _555
REMARK  212  A    between atoms: _555  and  _556
REMARK  213  A    between atoms: _558  and  _560
REMARK  214  A    between atoms: _560  and  _561
REMARK  215  A    between atoms: _560  and  _563
REMARK  216  A    between atoms: _566  and  _568
REMARK  217  A    between atoms: _568  and  _569
REMARK  218  A    between atoms: _568  and  _571
REMARK  219  A    between atoms: _571  and  _572
REMARK  220  A    between atoms: _572  and  _573
REMARK  221  A    between atoms: _573  and  _574
REMARK  222  A    between atoms: _574  and  _575
REMARK  223  A    between atoms: _579  and  _581
REMARK  224  A    between atoms: _581  and  _582
REMARK  225  A    between atoms: _581  and  _584
REMARK  226  A    between atoms: _584  and  _585
REMARK  227  A    between atoms: _591  and  _593
REMARK  228  A    between atoms: _593  and  _594
REMARK  229  A    between atoms: _593  and  _596
REMARK  230  A    between atoms: _596  and  _597
REMARK  231  A    between atoms: _602  and  _604
REMARK  232  A    between atoms: _604  and  _605
REMARK  233  A    between atoms: _604  and  _607
REMARK  234  A    between atoms: _607  and  _608
REMARK  235  A    between atoms: _610  and  _612
REMARK  236  A    between atoms: _612  and  _613
REMARK  237  A    between atoms: _612  and  _615
REMARK  238  A    between atoms: _615  and  _616
REMARK  239  A    between atoms: _618  and  _620
REMARK  240  A    between atoms: _620  and  _621
REMARK  241  A    between atoms: _620  and  _623
REMARK  242  A    between atoms: _627  and  _628
REMARK  243  A    between atoms: _633  and  _635
REMARK  244  A    between atoms: _635  and  _636
REMARK  245  A    between atoms: _635  and  _638
REMARK  246  A    between atoms: _638  and  _639
REMARK  247  A    between atoms: _644  and  _645
REMARK  248  A    between atoms: _647  and  _649
REMARK  249  A    between atoms: _649  and  _650
REMARK  250  A    between atoms: _649  and  _652
REMARK  251  A    between atoms: _652  and  _653
REMARK  252  A    between atoms: _653  and  _654
REMARK  253  A    between atoms: _654  and  _655
REMARK  254  A    between atoms: _664  and  _666
REMARK  255  A    between atoms: _666  and  _667
REMARK  256  A    between atoms: _666  and  _669
REMARK  257  A    between atoms: _669  and  _670
REMARK  258  A    between atoms: _675  and  _676
REMARK  259  A    between atoms: _678  and  _680
REMARK  260  A    between atoms: _680  and  _681
REMARK  261  A    between atoms: _680  and  _683
REMARK  262  A    between atoms: _683  and  _684
REMARK  263  A    between atoms: _690  and  _692
REMARK  264  A    between atoms: _692  and  _693
REMARK  265  A    between atoms: _692  and  _695
REMARK  266  A    between atoms: _695  and  _696
REMARK  267  A    between atoms: _698  and  _700
REMARK  268  A    between atoms: _700  and  _701
REMARK  269  A    between atoms: _700  and  _703
REMARK  270  A    between atoms: _703  and  _704
REMARK  271  A    between atoms: _710  and  _712
REMARK  272  A    between atoms: _712  and  _713
REMARK  273  A    between atoms: _712  and  _715
REMARK  274  A    between atoms: _715  and  _716
REMARK  275  A    between atoms: _716  and  _717
REMARK                            x       y       z     vdW  Elec       q    Type
REMARK                         _______ _______ _______ _____ _____    ______ ____
ROOT
ATOM      1  O   HOH     1      46.981  34.395  37.442  0.00  0.00    +0.000 OA
ENDROOT
TORSDOF 0
REMARK  Name = ../refined-set-2016/2oc2/2oc2_pocket.pdb
REMARK  275 active torsions:
REMARK  status: ('A' for Active; 'I' for Inactive)
REMARK    1  A    between atoms: _1  and  _3
REMARK    2  A    between atoms: _3  and  _4
REMARK    3  A    between atoms: _3  and  _6
REMARK    4  A    between atoms: _6  and  _7
REMARK    5  A    between atoms: _12  and  _14
REMARK    6  A    between atoms: _14  and  _15
REMARK    7  A    between atoms: _14  and  _17
REMARK    8  A    between atoms: _17  and  _18
REMARK    9  A    between atoms: _23  and  _25
REMARK   10  A    between atoms: _25  and  _26
REMARK   11  A    between atoms: _25  and  _28
REMARK   12  A    between atoms: _28  and  _29
REMARK   13  A    between atoms: _29  and  _30
REMARK   14  A    between atoms: _33  and  _35
REMARK   15  A    between atoms: _35  and  _36
REMARK   16  A    between atoms: _35  and  _38
REMARK   17  A    between atoms: _38  and  _39
REMARK   18  A    between atoms: _44  and  _45
REMARK   19  A    between atoms: _47  and  _49
REMARK   20  A    between atoms: _49  and  _50
REMARK   21  A    between atoms: _49  and  _52
REMARK   22  A    between atoms: _52  and  _53
REMARK   23  A    between atoms: _53  and  _54
REMARK   24  A    between atoms: _57  and  _59
REMARK   25  A    between atoms: _59  and  _60
REMARK   26  A    between atoms: _59  and  _62
REMARK   27  A    between atoms: _62  and  _63
REMARK   28  A    between atoms: _68  and  _70
REMARK   29  A    between atoms: _70  and  _71
REMARK   30  A    between atoms: _70  and  _73
REMARK   31  A    between atoms: _73  and  _74
REMARK   32  A    between atoms: _84  and  _86
REMARK   33  A    between atoms: _86  and  _87
REMARK   34  A    between atoms: _86  and  _89
REMARK   35  A    between atoms: _89  and  _90
REMARK   36  A    between atoms: _90  and  _91
REMARK   37  A    between atoms: _96  and  _98
REMARK   38  A    between atoms: _98  and  _99
REMARK   39  A    between atoms: _98  and  _101
REMARK   40  A    between atoms: _101  and  _102
REMARK   41  A    between atoms: _105  and  _107
REMARK   42  A    between atoms: _107  and  _108
REMARK   43  A    between atoms: _107  and  _110
REMARK   44  A    between atoms: _113  and  _115
REMARK   45  A    between atoms: _115  and  _116
REMARK   46  A    between atoms: _115  and  _118
REMARK   47  A    between atoms: _118  and  _119
REMARK   48  A    between atoms: _119  and  _247
REMARK   49  A    between atoms: _120  and  _122
REMARK   50  A    between atoms: _122  and  _123
REMARK   51  A    between atoms: _122  and  _125
REMARK   52  A    between atoms: _125  and  _126
REMARK   53  A    between atoms: _131  and  _133
REMARK   54  A    between atoms: _133  and  _134
REMARK   55  A    between atoms: _137  and  _139
REMARK   56  A    between atoms: _139  and  _140
REMARK   57  A    between atoms: _139  and  _142
REMARK   58  A    between atoms: _142  and  _143
REMARK   59  A    between atoms: _145  and  _147
REMARK   60  A    between atoms: _147  and  _148
REMARK   61  A    between atoms: _151  and  _153
REMARK   62  A    between atoms: _153  and  _154
REMARK   63  A    between atoms: _153  and  _156
REMARK   64  A    between atoms: _156  and  _157
REMARK   65  A    between atoms: _167  and  _169
REMARK   66  A    between atoms: _169  and  _170
REMARK   67  A    between atoms: _169  and  _172
REMARK   68  A    between atoms: _172  and  _173
REMARK   69  A    between atoms: _176  and  _178
REMARK   70  A    between atoms: _178  and  _179
REMARK   71  A    between atoms: _178  and  _181
REMARK   72  A    between atoms: _181  and  _182
REMARK   73  A    between atoms: _187  and  _188
REMARK   74  A    between atoms: _190  and  _192
REMARK   75  A    between atoms: _192  and  _193
REMARK   76  A    between atoms: _192  and  _195
REMARK   77  A    between atoms: _195  and  _196
REMARK   78  A    between atoms: _196  and  _197
REMARK   79  A    between atoms: _197  and  _198
REMARK   80  A    between atoms: _207  and  _209
REMARK   81  A    between atoms: _209  and  _210
REMARK   82  A    between atoms: _209  and  _212
REMARK   83  A    between atoms: _212  and  _213
REMARK   84  A    between atoms: _216  and  _218
REMARK   85  A    between atoms: _218  and  _219
REMARK   86  A    between atoms: _218  and  _221
REMARK   87  A    between atoms: _221  and  _222
REMARK   88  A    between atoms: _222  and  _223
REMARK   89  A    between atoms: _223  and  _224
REMARK   90  A    between atoms: _224  and  _225
REMARK   91  A    between atoms: _229  and  _231
REMARK   92  A    between atoms: _231  and  _232
REMARK   93  A    between atoms: _231  and  _234
REMARK   94  A    between atoms: _234  and  _235
REMARK   95  A    between atoms: _235  and  _236
REMARK   96  A    between atoms: _241  and  _243
REMARK   97  A    between atoms: _243  and  _244
REMARK   98  A    between atoms: _243  and  _246
REMARK   99  A    between atoms: _246  and  _247
REMARK  100  A    between atoms: _248  and  _250
REMARK  101  A    between atoms: _250  and  _251
REMARK  102  A    between atoms: _250  and  _253
REMARK  103  A    between atoms: _253  and  _254
REMARK  104  A    between atoms: _254  and  _255
REMARK  105  A    between atoms: _258  and  _260
REMARK  106  A    between atoms: _260  and  _261
REMARK  107  A    between atoms: _260  and  _263
REMARK  108  A    between atoms: _263  and  _264
REMARK  109  A    between atoms: _267  and  _269
REMARK  110  A    between atoms: _269  and  _270
REMARK  111  A    between atoms: _269  and  _272
REMARK  112  A    between atoms: _275  and  _277
REMARK  113  A    between atoms: _277  and  _278
REMARK  114  A    between atoms: _277  and  _280
REMARK  115  A    between atoms: _283  and  _285
REMARK  116  A    between atoms: _285  and  _286
REMARK  117  A    between atoms: _289  and  _291
REMARK  118  A    between atoms: _291  and  _292
REMARK  119  A    between atoms: _291  and  _294
REMARK  120  A    between atoms: _294  and  _295
REMARK  121  A    between atoms: _300  and  _302
REMARK  122  A    between atoms: _313  and  _316
REMARK  123  A    between atoms: _316  and  _317
REMARK  124  A    between atoms: _317  and  _318
REMARK  125  A    between atoms: _323  and  _326
REMARK  126  A    between atoms: _326  and  _327
REMARK  127  A    between atoms: _327  and  _328
REMARK  128  A    between atoms: _337  and  _338
REMARK  129  A    between atoms: _346  and  _348
REMARK  130  A    between atoms: _348  and  _349
REMARK  131  A    between atoms: _348  and  _351
REMARK  132  A    between atoms: _351  and  _352
REMARK  133  A    between atoms: _355  and  _357
REMARK  134  A    between atoms: _357  and  _358
REMARK  135  A    between atoms: _357  and  _360
REMARK  136  A    between atoms: _360  and  _361
REMARK  137  A    between atoms: _366  and  _367
REMARK  138  A    between atoms: _369  and  _371
REMARK  139  A    between atoms: _371  and  _372
REMARK  140  A    between atoms: _371  and  _374
REMARK  141  A    between atoms: _374  and  _375
REMARK  142  A    between atoms: _381  and  _383
REMARK  143  A    between atoms: _383  and  _384
REMARK  144  A    between atoms: _383  and  _386
REMARK  145  A    between atoms: _386  and  _387
REMARK  146  A    between atoms: _392  and  _393
REMARK  147  A    between atoms: _395  and  _397
REMARK  148  A    between atoms: _397  and  _398
REMARK  149  A    between atoms: _397  and  _400
REMARK  150  A    between atoms: _400  and  _401
REMARK  151  A    between atoms: _401  and  _402
REMARK  152  A    between atoms: _402  and  _403
REMARK  153  A    between atoms: _412  and  _414
REMARK  154  A    between atoms: _414  and  _415
REMARK  155  A    between atoms: _414  and  _417
REMARK  156  A    between atoms: _417  and  _418
REMARK  157  A    between atoms: _418  and  _419
REMARK  158  A    between atoms: _422  and  _424
REMARK  159  A    between atoms: _424  and  _425
REMARK  160  A    between atoms: _427  and  _429
REMARK  161  A    between atoms: _429  and  _430
REMARK  162  A    between atoms: _429  and  _432
REMARK  163  A    between atoms: _432  and  _433
REMARK  164  A    between atoms: _439  and  _440
REMARK  165  A    between atoms: _445  and  _447
REMARK  166  A    between atoms: _447  and  _448
REMARK  167  A    between atoms: _447  and  _450
REMARK  168  A    between atoms: _450  and  _451
REMARK  169  A    between atoms: _457  and  _459
REMARK  170  A    between atoms: _459  and  _460
REMARK  171  A    between atoms: _459  and  _462
REMARK  172  A    between atoms: _462  and  _463
REMARK  173  A    between atoms: _468  and  _470
REMARK  174  A    between atoms: _470  and  _471
REMARK  175  A    between atoms: _470  and  _473
REMARK  176  A    between atoms: _473  and  _474
REMARK  177  A    between atoms: _474  and  _475
REMARK  178  A    between atoms: _475  and  _476
REMARK  179  A    between atoms: _476  and  ZN_722
REMARK  180  A    between atoms: _478  and  _480
REMARK  181  A    between atoms: _480  and  _481
REMARK  182  A    between atoms: _484  and  _486
REMARK  183  A    between atoms: _486  and  _487
REMARK  184  A    between atoms: _489  and  _491
REMARK  185  A    between atoms: _491  and  _492
REMARK  186  A    between atoms: _491  and  _494
REMARK  187  A    between atoms: _494  and  _495
REMARK  188  A    between atoms: _498  and  _500
REMARK  189  A    between atoms: _500  and  _501
REMARK  190  A    between atoms: _504  and  _506
REMARK  191  A    between atoms: _506  and  _507
REMARK  192  A    between atoms: _506  and  _509
REMARK  193  A    between atoms: _509  and  _510
REMARK  194  A    between atoms: _513  and  _515
REMARK  195  A    between atoms: _515  and  _516
REMARK  196  A    between atoms: _515  and  _518
REMARK  197  A    between atoms: _518  and  _519
REMARK  198  A    between atoms: _519  and  _520
REMARK  199  A    between atoms: _520  and  _521
REMARK  200  A    between atoms: _521  and  _522
REMARK  201  A    between atoms: _526  and  _528
REMARK  202  A    between atoms: _528  and  _529
REMARK  203  A    between atoms: _528  and  _531
REMARK  204  A    between atoms: _531  and  _532
REMARK  205  A    between atoms: _538  and  _540
REMARK  206  A    between atoms: _540  and  _541
REMARK  207  A    between atoms: _540  and  _543
REMARK  208  A    between atoms: _543  and  _544
REMARK  209  A    between atoms: _550  and  _552
REMARK  210  A    between atoms: _552  and  _553
REMARK  211  A    between atoms: _552  and  _555
REMARK  212  A    between atoms: _555  and  _556
REMARK  213  A    between atoms: _558  and  _560
REMARK  214  A    between atoms: _560  and  _561
REMARK  215  A    between atoms: _560  and  _563
REMARK  216  A    between atoms: _566  and  _568
REMARK  217  A    between atoms: _568  and  _569
REMARK  218  A    between atoms: _568  and  _571
REMARK  219  A    between atoms: _571  and  _572
REMARK  220  A    between atoms: _572  and  _573
REMARK  221  A    between atoms: _573  and  _574
REMARK  222  A    between atoms: _574  and  _575
REMARK  223  A    between atoms: _579  and  _581
REMARK  224  A    between atoms: _581  and  _582
REMARK  225  A    between atoms: _581  and  _584
REMARK  226  A    between atoms: _584  and  _585
REMARK  227  A    between atoms: _591  and  _593
REMARK  228  A    between atoms: _593  and  _594
REMARK  229  A    between atoms: _593  and  _596
REMARK  230  A    between atoms: _596  and  _597
REMARK  231  A    between atoms: _602  and  _604
REMARK  232  A    between atoms: _604  and  _605
REMARK  233  A    between atoms: _604  and  _607
REMARK  234  A    between atoms: _607  and  _608
REMARK  235  A    between atoms: _610  and  _612
REMARK  236  A    between atoms: _612  and  _613
REMARK  237  A    between atoms: _612  and  _615
REMARK  238  A    between atoms: _615  and  _616
REMARK  239  A    between atoms: _618  and  _620
REMARK  240  A    between atoms: _620  and  _621
REMARK  241  A    between atoms: _620  and  _623
REMARK  242  A    between atoms: _627  and  _628
REMARK  243  A    between atoms: _633  and  _635
REMARK  244  A    between atoms: _635  and  _636
REMARK  245  A    between atoms: _635  and  _638
REMARK  246  A    between atoms: _638  and  _639
REMARK  247  A    between atoms: _644  and  _645
REMARK  248  A    between atoms: _647  and  _649
REMARK  249  A    between atoms: _649  and  _650
REMARK  250  A    between atoms: _649  and  _652
REMARK  251  A    between atoms: _652  and  _653
REMARK  252  A    between atoms: _653  and  _654
REMARK  253  A    between atoms: _654  and  _655
REMARK  254  A    between atoms: _664  and  _666
REMARK  255  A    between atoms: _666  and  _667
REMARK  256  A    between atoms: _666  and  _669
REMARK  257  A    between atoms: _669  and  _670
REMARK  258  A    between atoms: _675  and  _676
REMARK  259  A    between atoms: _678  and  _680
REMARK  260  A    between atoms: _680  and  _681
REMARK  261  A    between atoms: _680  and  _683
REMARK  262  A    between atoms: _683  and  _684
REMARK  263  A    between atoms: _690  and  _692
REMARK  264  A    between atoms: _692  and  _693
REMARK  265  A    between atoms: _692  and  _695
REMARK  266  A    between atoms: _695  and  _696
REMARK  267  A    between atoms: _698  and  _700
REMARK  268  A    between atoms: _700  and  _701
REMARK  269  A    between atoms: _700  and  _703
REMARK  270  A    between atoms: _703  and  _704
REMARK  271  A    between atoms: _710  and  _712
REMARK  272  A    between atoms: _712  and  _713
REMARK  273  A    between atoms: _712  and  _715
REMARK  274  A    between atoms: _715  and  _716
REMARK  275  A    between atoms: _716  and  _717
REMARK                            x       y       z     vdW  Elec       q    Type
REMARK                         _______ _______ _______ _____ _____    ______ ____
ROOT
ATOM      1  O   HOH     1      44.527  45.013  56.551  0.00  0.00    +0.000 OA
ENDROOT
TORSDOF 0
REMARK  Name = ../refined-set-2016/2oc2/2oc2_pocket.pdb
REMARK  275 active torsions:
REMARK  status: ('A' for Active; 'I' for Inactive)
REMARK    1  A    between atoms: _1  and  _3
REMARK    2  A    between atoms: _3  and  _4
REMARK    3  A    between atoms: _3  and  _6
REMARK    4  A    between atoms: _6  and  _7
REMARK    5  A    between atoms: _12  and  _14
REMARK    6  A    between atoms: _14  and  _15
REMARK    7  A    between atoms: _14  and  _17
REMARK    8  A    between atoms: _17  and  _18
REMARK    9  A    between atoms: _23  and  _25
REMARK   10  A    between atoms: _25  and  _26
REMARK   11  A    between atoms: _25  and  _28
REMARK   12  A    between atoms: _28  and  _29
REMARK   13  A    between atoms: _29  and  _30
REMARK   14  A    between atoms: _33  and  _35
REMARK   15  A    between atoms: _35  and  _36
REMARK   16  A    between atoms: _35  and  _38
REMARK   17  A    between atoms: _38  and  _39
REMARK   18  A    between atoms: _44  and  _45
REMARK   19  A    between atoms: _47  and  _49
REMARK   20  A    between atoms: _49  and  _50
REMARK   21  A    between atoms: _49  and  _52
REMARK   22  A    between atoms: _52  and  _53
REMARK   23  A    between atoms: _53  and  _54
REMARK   24  A    between atoms: _57  and  _59
REMARK   25  A    between atoms: _59  and  _60
REMARK   26  A    between atoms: _59  and  _62
REMARK   27  A    between atoms: _62  and  _63
REMARK   28  A    between atoms: _68  and  _70
REMARK   29  A    between atoms: _70  and  _71
REMARK   30  A    between atoms: _70  and  _73
REMARK   31  A    between atoms: _73  and  _74
REMARK   32  A    between atoms: _84  and  _86
REMARK   33  A    between atoms: _86  and  _87
REMARK   34  A    between atoms: _86  and  _89
REMARK   35  A    between atoms: _89  and  _90
REMARK   36  A    between atoms: _90  and  _91
REMARK   37  A    between atoms: _96  and  _98
REMARK   38  A    between atoms: _98  and  _99
REMARK   39  A    between atoms: _98  and  _101
REMARK   40  A    between atoms: _101  and  _102
REMARK   41  A    between atoms: _105  and  _107
REMARK   42  A    between atoms: _107  and  _108
REMARK   43  A    between atoms: _107  and  _110
REMARK   44  A    between atoms: _113  and  _115
REMARK   45  A    between atoms: _115  and  _116
REMARK   46  A    between atoms: _115  and  _118
REMARK   47  A    between atoms: _118  and  _119
REMARK   48  A    between atoms: _119  and  _247
REMARK   49  A    between atoms: _120  and  _122
REMARK   50  A    between atoms: _122  and  _123
REMARK   51  A    between atoms: _122  and  _125
REMARK   52  A    between atoms: _125  and  _126
REMARK   53  A    between atoms: _131  and  _133
REMARK   54  A    between atoms: _133  and  _134
REMARK   55  A    between atoms: _137  and  _139
REMARK   56  A    between atoms: _139  and  _140
REMARK   57  A    between atoms: _139  and  _142
REMARK   58  A    between atoms: _142  and  _143
REMARK   59  A    between atoms: _145  and  _147
REMARK   60  A    between atoms: _147  and  _148
REMARK   61  A    between atoms: _151  and  _153
REMARK   62  A    between atoms: _153  and  _154
REMARK   63  A    between atoms: _153  and  _156
REMARK   64  A    between atoms: _156  and  _157
REMARK   65  A    between atoms: _167  and  _169
REMARK   66  A    between atoms: _169  and  _170
REMARK   67  A    between atoms: _169  and  _172
REMARK   68  A    between atoms: _172  and  _173
REMARK   69  A    between atoms: _176  and  _178
REMARK   70  A    between atoms: _178  and  _179
REMARK   71  A    between atoms: _178  and  _181
REMARK   72  A    between atoms: _181  and  _182
REMARK   73  A    between atoms: _187  and  _188
REMARK   74  A    between atoms: _190  and  _192
REMARK   75  A    between atoms: _192  and  _193
REMARK   76  A    between atoms: _192  and  _195
REMARK   77  A    between atoms: _195  and  _196
REMARK   78  A    between atoms: _196  and  _197
REMARK   79  A    between atoms: _197  and  _198
REMARK   80  A    between atoms: _207  and  _209
REMARK   81  A    between atoms: _209  and  _210
REMARK   82  A    between atoms: _209  and  _212
REMARK   83  A    between atoms: _212  and  _213
REMARK   84  A    between atoms: _216  and  _218
REMARK   85  A    between atoms: _218  and  _219
REMARK   86  A    between atoms: _218  and  _221
REMARK   87  A    between atoms: _221  and  _222
REMARK   88  A    between atoms: _222  and  _223
REMARK   89  A    between atoms: _223  and  _224
REMARK   90  A    between atoms: _224  and  _225
REMARK   91  A    between atoms: _229  and  _231
REMARK   92  A    between atoms: _231  and  _232
REMARK   93  A    between atoms: _231  and  _234
REMARK   94  A    between atoms: _234  and  _235
REMARK   95  A    between atoms: _235  and  _236
REMARK   96  A    between atoms: _241  and  _243
REMARK   97  A    between atoms: _243  and  _244
REMARK   98  A    between atoms: _243  and  _246
REMARK   99  A    between atoms: _246  and  _247
REMARK  100  A    between atoms: _248  and  _250
REMARK  101  A    between atoms: _250  and  _251
REMARK  102  A    between atoms: _250  and  _253
REMARK  103  A    between atoms: _253  and  _254
REMARK  104  A    between atoms: _254  and  _255
REMARK  105  A    between atoms: _258  and  _260
REMARK  106  A    between atoms: _260  and  _261
REMARK  107  A    between atoms: _260  and  _263
REMARK  108  A    between atoms: _263  and  _264
REMARK  109  A    between atoms: _267  and  _269
REMARK  110  A    between atoms: _269  and  _270
REMARK  111  A    between atoms: _269  and  _272
REMARK  112  A    between atoms: _275  and  _277
REMARK  113  A    between atoms: _277  and  _278
REMARK  114  A    between atoms: _277  and  _280
REMARK  115  A    between atoms: _283  and  _285
REMARK  116  A    between atoms: _285  and  _286
REMARK  117  A    between atoms: _289  and  _291
REMARK  118  A    between atoms: _291  and  _292
REMARK  119  A    between atoms: _291  and  _294
REMARK  120  A    between atoms: _294  and  _295
REMARK  121  A    between atoms: _300  and  _302
REMARK  122  A    between atoms: _313  and  _316
REMARK  123  A    between atoms: _316  and  _317
REMARK  124  A    between atoms: _317  and  _318
REMARK  125  A    between atoms: _323  and  _326
REMARK  126  A    between atoms: _326  and  _327
REMARK  127  A    between atoms: _327  and  _328
REMARK  128  A    between atoms: _337  and  _338
REMARK  129  A    between atoms: _346  and  _348
REMARK  130  A    between atoms: _348  and  _349
REMARK  131  A    between atoms: _348  and  _351
REMARK  132  A    between atoms: _351  and  _352
REMARK  133  A    between atoms: _355  and  _357
REMARK  134  A    between atoms: _357  and  _358
REMARK  135  A    between atoms: _357  and  _360
REMARK  136  A    between atoms: _360  and  _361
REMARK  137  A    between atoms: _366  and  _367
REMARK  138  A    between atoms: _369  and  _371
REMARK  139  A    between atoms: _371  and  _372
REMARK  140  A    between atoms: _371  and  _374
REMARK  141  A    between atoms: _374  and  _375
REMARK  142  A    between atoms: _381  and  _383
REMARK  143  A    between atoms: _383  and  _384
REMARK  144  A    between atoms: _383  and  _386
REMARK  145  A    between atoms: _386  and  _387
REMARK  146  A    between atoms: _392  and  _393
REMARK  147  A    between atoms: _395  and  _397
REMARK  148  A    between atoms: _397  and  _398
REMARK  149  A    between atoms: _397  and  _400
REMARK  150  A    between atoms: _400  and  _401
REMARK  151  A    between atoms: _401  and  _402
REMARK  152  A    between atoms: _402  and  _403
REMARK  153  A    between atoms: _412  and  _414
REMARK  154  A    between atoms: _414  and  _415
REMARK  155  A    between atoms: _414  and  _417
REMARK  156  A    between atoms: _417  and  _418
REMARK  157  A    between atoms: _418  and  _419
REMARK  158  A    between atoms: _422  and  _424
REMARK  159  A    between atoms: _424  and  _425
REMARK  160  A    between atoms: _427  and  _429
REMARK  161  A    between atoms: _429  and  _430
REMARK  162  A    between atoms: _429  and  _432
REMARK  163  A    between atoms: _432  and  _433
REMARK  164  A    between atoms: _439  and  _440
REMARK  165  A    between atoms: _445  and  _447
REMARK  166  A    between atoms: _447  and  _448
REMARK  167  A    between atoms: _447  and  _450
REMARK  168  A    between atoms: _450  and  _451
REMARK  169  A    between atoms: _457  and  _459
REMARK  170  A    between atoms: _459  and  _460
REMARK  171  A    between atoms: _459  and  _462
REMARK  172  A    between atoms: _462  and  _463
REMARK  173  A    between atoms: _468  and  _470
REMARK  174  A    between atoms: _470  and  _471
REMARK  175  A    between atoms: _470  and  _473
REMARK  176  A    between atoms: _473  and  _474
REMARK  177  A    between atoms: _474  and  _475
REMARK  178  A    between atoms: _475  and  _476
REMARK  179  A    between atoms: _476  and  ZN_722
REMARK  180  A    between atoms: _478  and  _480
REMARK  181  A    between atoms: _480  and  _481
REMARK  182  A    between atoms: _484  and  _486
REMARK  183  A    between atoms: _486  and  _487
REMARK  184  A    between atoms: _489  and  _491
REMARK  185  A    between atoms: _491  and  _492
REMARK  186  A    between atoms: _491  and  _494
REMARK  187  A    between atoms: _494  and  _495
REMARK  188  A    between atoms: _498  and  _500
REMARK  189  A    between atoms: _500  and  _501
REMARK  190  A    between atoms: _504  and  _506
REMARK  191  A    between atoms: _506  and  _507
REMARK  192  A    between atoms: _506  and  _509
REMARK  193  A    between atoms: _509  and  _510
REMARK  194  A    between atoms: _513  and  _515
REMARK  195  A    between atoms: _515  and  _516
REMARK  196  A    between atoms: _515  and  _518
REMARK  197  A    between atoms: _518  and  _519
REMARK  198  A    between atoms: _519  and  _520
REMARK  199  A    between atoms: _520  and  _521
REMARK  200  A    between atoms: _521  and  _522
REMARK  201  A    between atoms: _526  and  _528
REMARK  202  A    between atoms: _528  and  _529
REMARK  203  A    between atoms: _528  and  _531
REMARK  204  A    between atoms: _531  and  _532
REMARK  205  A    between atoms: _538  and  _540
REMARK  206  A    between atoms: _540  and  _541
REMARK  207  A    between atoms: _540  and  _543
REMARK  208  A    between atoms: _543  and  _544
REMARK  209  A    between atoms: _550  and  _552
REMARK  210  A    between atoms: _552  and  _553
REMARK  211  A    between atoms: _552  and  _555
REMARK  212  A    between atoms: _555  and  _556
REMARK  213  A    between atoms: _558  and  _560
REMARK  214  A    between atoms: _560  and  _561
REMARK  215  A    between atoms: _560  and  _563
REMARK  216  A    between atoms: _566  and  _568
REMARK  217  A    between atoms: _568  and  _569
REMARK  218  A    between atoms: _568  and  _571
REMARK  219  A    between atoms: _571  and  _572
REMARK  220  A    between atoms: _572  and  _573
REMARK  221  A    between atoms: _573  and  _574
REMARK  222  A    between atoms: _574  and  _575
REMARK  223  A    between atoms: _579  and  _581
REMARK  224  A    between atoms: _581  and  _582
REMARK  225  A    between atoms: _581  and  _584
REMARK  226  A    between atoms: _584  and  _585
REMARK  227  A    between atoms: _591  and  _593
REMARK  228  A    between atoms: _593  and  _594
REMARK  229  A    between atoms: _593  and  _596
REMARK  230  A    between atoms: _596  and  _597
REMARK  231  A    between atoms: _602  and  _604
REMARK  232  A    between atoms: _604  and  _605
REMARK  233  A    between atoms: _604  and  _607
REMARK  234  A    between atoms: _607  and  _608
REMARK  235  A    between atoms: _610  and  _612
REMARK  236  A    between atoms: _612  and  _613
REMARK  237  A    between atoms: _612  and  _615
REMARK  238  A    between atoms: _615  and  _616
REMARK  239  A    between atoms: _618  and  _620
REMARK  240  A    between atoms: _620  and  _621
REMARK  241  A    between atoms: _620  and  _623
REMARK  242  A    between atoms: _627  and  _628
REMARK  243  A    between atoms: _633  and  _635
REMARK  244  A    between atoms: _635  and  _636
REMARK  245  A    between atoms: _635  and  _638
REMARK  246  A    between atoms: _638  and  _639
REMARK  247  A    between atoms: _644  and  _645
REMARK  248  A    between atoms: _647  and  _649
REMARK  249  A    between atoms: _649  and  _650
REMARK  250  A    between atoms: _649  and  _652
REMARK  251  A    between atoms: _652  and  _653
REMARK  252  A    between atoms: _653  and  _654
REMARK  253  A    between atoms: _654  and  _655
REMARK  254  A    between atoms: _664  and  _666
REMARK  255  A    between atoms: _666  and  _667
REMARK  256  A    between atoms: _666  and  _669
REMARK  257  A    between atoms: _669  and  _670
REMARK  258  A    between atoms: _675  and  _676
REMARK  259  A    between atoms: _678  and  _680
REMARK  260  A    between atoms: _680  and  _681
REMARK  261  A    between atoms: _680  and  _683
REMARK  262  A    between atoms: _683  and  _684
REMARK  263  A    between atoms: _690  and  _692
REMARK  264  A    between atoms: _692  and  _693
REMARK  265  A    between atoms: _692  and  _695
REMARK  266  A    between atoms: _695  and  _696
REMARK  267  A    between atoms: _698  and  _700
REMARK  268  A    between atoms: _700  and  _701
REMARK  269  A    between atoms: _700  and  _703
REMARK  270  A    between atoms: _703  and  _704
REMARK  271  A    between atoms: _710  and  _712
REMARK  272  A    between atoms: _712  and  _713
REMARK  273  A    between atoms: _712  and  _715
REMARK  274  A    between atoms: _715  and  _716
REMARK  275  A    between atoms: _716  and  _717
REMARK                            x       y       z     vdW  Elec       q    Type
REMARK                         _______ _______ _______ _____ _____    ______ ____
ROOT
ATOM      1  O   HOH     1      36.719  27.798  45.640  0.00  0.00    +0.000 OA
ENDROOT
TORSDOF 0
REMARK  Name = ../refined-set-2016/2oc2/2oc2_pocket.pdb
REMARK  275 active torsions:
REMARK  status: ('A' for Active; 'I' for Inactive)
REMARK    1  A    between atoms: _1  and  _3
REMARK    2  A    between atoms: _3  and  _4
REMARK    3  A    between atoms: _3  and  _6
REMARK    4  A    between atoms: _6  and  _7
REMARK    5  A    between atoms: _12  and  _14
REMARK    6  A    between atoms: _14  and  _15
REMARK    7  A    between atoms: _14  and  _17
REMARK    8  A    between atoms: _17  and  _18
REMARK    9  A    between atoms: _23  and  _25
REMARK   10  A    between atoms: _25  and  _26
REMARK   11  A    between atoms: _25  and  _28
REMARK   12  A    between atoms: _28  and  _29
REMARK   13  A    between atoms: _29  and  _30
REMARK   14  A    between atoms: _33  and  _35
REMARK   15  A    between atoms: _35  and  _36
REMARK   16  A    between atoms: _35  and  _38
REMARK   17  A    between atoms: _38  and  _39
REMARK   18  A    between atoms: _44  and  _45
REMARK   19  A    between atoms: _47  and  _49
REMARK   20  A    between atoms: _49  and  _50
REMARK   21  A    between atoms: _49  and  _52
REMARK   22  A    between atoms: _52  and  _53
REMARK   23  A    between atoms: _53  and  _54
REMARK   24  A    between atoms: _57  and  _59
REMARK   25  A    between atoms: _59  and  _60
REMARK   26  A    between atoms: _59  and  _62
REMARK   27  A    between atoms: _62  and  _63
REMARK   28  A    between atoms: _68  and  _70
REMARK   29  A    between atoms: _70  and  _71
REMARK   30  A    between atoms: _70  and  _73
REMARK   31  A    between atoms: _73  and  _74
REMARK   32  A    between atoms: _84  and  _86
REMARK   33  A    between atoms: _86  and  _87
REMARK   34  A    between atoms: _86  and  _89
REMARK   35  A    between atoms: _89  and  _90
REMARK   36  A    between atoms: _90  and  _91
REMARK   37  A    between atoms: _96  and  _98
REMARK   38  A    between atoms: _98  and  _99
REMARK   39  A    between atoms: _98  and  _101
REMARK   40  A    between atoms: _101  and  _102
REMARK   41  A    between atoms: _105  and  _107
REMARK   42  A    between atoms: _107  and  _108
REMARK   43  A    between atoms: _107  and  _110
REMARK   44  A    between atoms: _113  and  _115
REMARK   45  A    between atoms: _115  and  _116
REMARK   46  A    between atoms: _115  and  _118
REMARK   47  A    between atoms: _118  and  _119
REMARK   48  A    between atoms: _119  and  _247
REMARK   49  A    between atoms: _120  and  _122
REMARK   50  A    between atoms: _122  and  _123
REMARK   51  A    between atoms: _122  and  _125
REMARK   52  A    between atoms: _125  and  _126
REMARK   53  A    between atoms: _131  and  _133
REMARK   54  A    between atoms: _133  and  _134
REMARK   55  A    between atoms: _137  and  _139
REMARK   56  A    between atoms: _139  and  _140
REMARK   57  A    between atoms: _139  and  _142
REMARK   58  A    between atoms: _142  and  _143
REMARK   59  A    between atoms: _145  and  _147
REMARK   60  A    between atoms: _147  and  _148
REMARK   61  A    between atoms: _151  and  _153
REMARK   62  A    between atoms: _153  and  _154
REMARK   63  A    between atoms: _153  and  _156
REMARK   64  A    between atoms: _156  and  _157
REMARK   65  A    between atoms: _167  and  _169
REMARK   66  A    between atoms: _169  and  _170
REMARK   67  A    between atoms: _169  and  _172
REMARK   68  A    between atoms: _172  and  _173
REMARK   69  A    between atoms: _176  and  _178
REMARK   70  A    between atoms: _178  and  _179
REMARK   71  A    between atoms: _178  and  _181
REMARK   72  A    between atoms: _181  and  _182
REMARK   73  A    between atoms: _187  and  _188
REMARK   74  A    between atoms: _190  and  _192
REMARK   75  A    between atoms: _192  and  _193
REMARK   76  A    between atoms: _192  and  _195
REMARK   77  A    between atoms: _195  and  _196
REMARK   78  A    between atoms: _196  and  _197
REMARK   79  A    between atoms: _197  and  _198
REMARK   80  A    between atoms: _207  and  _209
REMARK   81  A    between atoms: _209  and  _210
REMARK   82  A    between atoms: _209  and  _212
REMARK   83  A    between atoms: _212  and  _213
REMARK   84  A    between atoms: _216  and  _218
REMARK   85  A    between atoms: _218  and  _219
REMARK   86  A    between atoms: _218  and  _221
REMARK   87  A    between atoms: _221  and  _222
REMARK   88  A    between atoms: _222  and  _223
REMARK   89  A    between atoms: _223  and  _224
REMARK   90  A    between atoms: _224  and  _225
REMARK   91  A    between atoms: _229  and  _231
REMARK   92  A    between atoms: _231  and  _232
REMARK   93  A    between atoms: _231  and  _234
REMARK   94  A    between atoms: _234  and  _235
REMARK   95  A    between atoms: _235  and  _236
REMARK   96  A    between atoms: _241  and  _243
REMARK   97  A    between atoms: _243  and  _244
REMARK   98  A    between atoms: _243  and  _246
REMARK   99  A    between atoms: _246  and  _247
REMARK  100  A    between atoms: _248  and  _250
REMARK  101  A    between atoms: _250  and  _251
REMARK  102  A    between atoms: _250  and  _253
REMARK  103  A    between atoms: _253  and  _254
REMARK  104  A    between atoms: _254  and  _255
REMARK  105  A    between atoms: _258  and  _260
REMARK  106  A    between atoms: _260  and  _261
REMARK  107  A    between atoms: _260  and  _263
REMARK  108  A    between atoms: _263  and  _264
REMARK  109  A    between atoms: _267  and  _269
REMARK  110  A    between atoms: _269  and  _270
REMARK  111  A    between atoms: _269  and  _272
REMARK  112  A    between atoms: _275  and  _277
REMARK  113  A    between atoms: _277  and  _278
REMARK  114  A    between atoms: _277  and  _280
REMARK  115  A    between atoms: _283  and  _285
REMARK  116  A    between atoms: _285  and  _286
REMARK  117  A    between atoms: _289  and  _291
REMARK  118  A    between atoms: _291  and  _292
REMARK  119  A    between atoms: _291  and  _294
REMARK  120  A    between atoms: _294  and  _295
REMARK  121  A    between atoms: _300  and  _302
REMARK  122  A    between atoms: _313  and  _316
REMARK  123  A    between atoms: _316  and  _317
REMARK  124  A    between atoms: _317  and  _318
REMARK  125  A    between atoms: _323  and  _326
REMARK  126  A    between atoms: _326  and  _327
REMARK  127  A    between atoms: _327  and  _328
REMARK  128  A    between atoms: _337  and  _338
REMARK  129  A    between atoms: _346  and  _348
REMARK  130  A    between atoms: _348  and  _349
REMARK  131  A    between atoms: _348  and  _351
REMARK  132  A    between atoms: _351  and  _352
REMARK  133  A    between atoms: _355  and  _357
REMARK  134  A    between atoms: _357  and  _358
REMARK  135  A    between atoms: _357  and  _360
REMARK  136  A    between atoms: _360  and  _361
REMARK  137  A    between atoms: _366  and  _367
REMARK  138  A    between atoms: _369  and  _371
REMARK  139  A    between atoms: _371  and  _372
REMARK  140  A    between atoms: _371  and  _374
REMARK  141  A    between atoms: _374  and  _375
REMARK  142  A    between atoms: _381  and  _383
REMARK  143  A    between atoms: _383  and  _384
REMARK  144  A    between atoms: _383  and  _386
REMARK  145  A    between atoms: _386  and  _387
REMARK  146  A    between atoms: _392  and  _393
REMARK  147  A    between atoms: _395  and  _397
REMARK  148  A    between atoms: _397  and  _398
REMARK  149  A    between atoms: _397  and  _400
REMARK  150  A    between atoms: _400  and  _401
REMARK  151  A    between atoms: _401  and  _402
REMARK  152  A    between atoms: _402  and  _403
REMARK  153  A    between atoms: _412  and  _414
REMARK  154  A    between atoms: _414  and  _415
REMARK  155  A    between atoms: _414  and  _417
REMARK  156  A    between atoms: _417  and  _418
REMARK  157  A    between atoms: _418  and  _419
REMARK  158  A    between atoms: _422  and  _424
REMARK  159  A    between atoms: _424  and  _425
REMARK  160  A    between atoms: _427  and  _429
REMARK  161  A    between atoms: _429  and  _430
REMARK  162  A    between atoms: _429  and  _432
REMARK  163  A    between atoms: _432  and  _433
REMARK  164  A    between atoms: _439  and  _440
REMARK  165  A    between atoms: _445  and  _447
REMARK  166  A    between atoms: _447  and  _448
REMARK  167  A    between atoms: _447  and  _450
REMARK  168  A    between atoms: _450  and  _451
REMARK  169  A    between atoms: _457  and  _459
REMARK  170  A    between atoms: _459  and  _460
REMARK  171  A    between atoms: _459  and  _462
REMARK  172  A    between atoms: _462  and  _463
REMARK  173  A    between atoms: _468  and  _470
REMARK  174  A    between atoms: _470  and  _471
REMARK  175  A    between atoms: _470  and  _473
REMARK  176  A    between atoms: _473  and  _474
REMARK  177  A    between atoms: _474  and  _475
REMARK  178  A    between atoms: _475  and  _476
REMARK  179  A    between atoms: _476  and  ZN_722
REMARK  180  A    between atoms: _478  and  _480
REMARK  181  A    between atoms: _480  and  _481
REMARK  182  A    between atoms: _484  and  _486
REMARK  183  A    between atoms: _486  and  _487
REMARK  184  A    between atoms: _489  and  _491
REMARK  185  A    between atoms: _491  and  _492
REMARK  186  A    between atoms: _491  and  _494
REMARK  187  A    between atoms: _494  and  _495
REMARK  188  A    between atoms: _498  and  _500
REMARK  189  A    between atoms: _500  and  _501
REMARK  190  A    between atoms: _504  and  _506
REMARK  191  A    between atoms: _506  and  _507
REMARK  192  A    between atoms: _506  and  _509
REMARK  193  A    between atoms: _509  and  _510
REMARK  194  A    between atoms: _513  and  _515
REMARK  195  A    between atoms: _515  and  _516
REMARK  196  A    between atoms: _515  and  _518
REMARK  197  A    between atoms: _518  and  _519
REMARK  198  A    between atoms: _519  and  _520
REMARK  199  A    between atoms: _520  and  _521
REMARK  200  A    between atoms: _521  and  _522
REMARK  201  A    between atoms: _526  and  _528
REMARK  202  A    between atoms: _528  and  _529
REMARK  203  A    between atoms: _528  and  _531
REMARK  204  A    between atoms: _531  and  _532
REMARK  205  A    between atoms: _538  and  _540
REMARK  206  A    between atoms: _540  and  _541
REMARK  207  A    between atoms: _540  and  _543
REMARK  208  A    between atoms: _543  and  _544
REMARK  209  A    between atoms: _550  and  _552
REMARK  210  A    between atoms: _552  and  _553
REMARK  211  A    between atoms: _552  and  _555
REMARK  212  A    between atoms: _555  and  _556
REMARK  213  A    between atoms: _558  and  _560
REMARK  214  A    between atoms: _560  and  _561
REMARK  215  A    between atoms: _560  and  _563
REMARK  216  A    between atoms: _566  and  _568
REMARK  217  A    between atoms: _568  and  _569
REMARK  218  A    between atoms: _568  and  _571
REMARK  219  A    between atoms: _571  and  _572
REMARK  220  A    between atoms: _572  and  _573
REMARK  221  A    between atoms: _573  and  _574
REMARK  222  A    between atoms: _574  and  _575
REMARK  223  A    between atoms: _579  and  _581
REMARK  224  A    between atoms: _581  and  _582
REMARK  225  A    between atoms: _581  and  _584
REMARK  226  A    between atoms: _584  and  _585
REMARK  227  A    between atoms: _591  and  _593
REMARK  228  A    between atoms: _593  and  _594
REMARK  229  A    between atoms: _593  and  _596
REMARK  230  A    between atoms: _596  and  _597
REMARK  231  A    between atoms: _602  and  _604
REMARK  232  A    between atoms: _604  and  _605
REMARK  233  A    between atoms: _604  and  _607
REMARK  234  A    between atoms: _607  and  _608
REMARK  235  A    between atoms: _610  and  _612
REMARK  236  A    between atoms: _612  and  _613
REMARK  237  A    between atoms: _612  and  _615
REMARK  238  A    between atoms: _615  and  _616
REMARK  239  A    between atoms: _618  and  _620
REMARK  240  A    between atoms: _620  and  _621
REMARK  241  A    between atoms: _620  and  _623
REMARK  242  A    between atoms: _627  and  _628
REMARK  243  A    between atoms: _633  and  _635
REMARK  244  A    between atoms: _635  and  _636
REMARK  245  A    between atoms: _635  and  _638
REMARK  246  A    between atoms: _638  and  _639
REMARK  247  A    between atoms: _644  and  _645
REMARK  248  A    between atoms: _647  and  _649
REMARK  249  A    between atoms: _649  and  _650
REMARK  250  A    between atoms: _649  and  _652
REMARK  251  A    between atoms: _652  and  _653
REMARK  252  A    between atoms: _653  and  _654
REMARK  253  A    between atoms: _654  and  _655
REMARK  254  A    between atoms: _664  and  _666
REMARK  255  A    between atoms: _666  and  _667
REMARK  256  A    between atoms: _666  and  _669
REMARK  257  A    between atoms: _669  and  _670
REMARK  258  A    between atoms: _675  and  _676
REMARK  259  A    between atoms: _678  and  _680
REMARK  260  A    between atoms: _680  and  _681
REMARK  261  A    between atoms: _680  and  _683
REMARK  262  A    between atoms: _683  and  _684
REMARK  263  A    between atoms: _690  and  _692
REMARK  264  A    between atoms: _692  and  _693
REMARK  265  A    between atoms: _692  and  _695
REMARK  266  A    between atoms: _695  and  _696
REMARK  267  A    between atoms: _698  and  _700
REMARK  268  A    between atoms: _700  and  _701
REMARK  269  A    between atoms: _700  and  _703
REMARK  270  A    between atoms: _703  and  _704
REMARK  271  A    between atoms: _710  and  _712
REMARK  272  A    between atoms: _712  and  _713
REMARK  273  A    between atoms: _712  and  _715
REMARK  274  A    between atoms: _715  and  _716
REMARK  275  A    between atoms: _716  and  _717
REMARK                            x       y       z     vdW  Elec       q    Type
REMARK                         _______ _______ _______ _____ _____    ______ ____
ROOT
ATOM      1  O   HOH     1      41.524  38.255  55.316  0.00  0.00    +0.000 OA
ENDROOT
TORSDOF 0
REMARK  Name = ../refined-set-2016/2oc2/2oc2_pocket.pdb
REMARK  275 active torsions:
REMARK  status: ('A' for Active; 'I' for Inactive)
REMARK    1  A    between atoms: _1  and  _3
REMARK    2  A    between atoms: _3  and  _4
REMARK    3  A    between atoms: _3  and  _6
REMARK    4  A    between atoms: _6  and  _7
REMARK    5  A    between atoms: _12  and  _14
REMARK    6  A    between atoms: _14  and  _15
REMARK    7  A    between atoms: _14  and  _17
REMARK    8  A    between atoms: _17  and  _18
REMARK    9  A    between atoms: _23  and  _25
REMARK   10  A    between atoms: _25  and  _26
REMARK   11  A    between atoms: _25  and  _28
REMARK   12  A    between atoms: _28  and  _29
REMARK   13  A    between atoms: _29  and  _30
REMARK   14  A    between atoms: _33  and  _35
REMARK   15  A    between atoms: _35  and  _36
REMARK   16  A    between atoms: _35  and  _38
REMARK   17  A    between atoms: _38  and  _39
REMARK   18  A    between atoms: _44  and  _45
REMARK   19  A    between atoms: _47  and  _49
REMARK   20  A    between atoms: _49  and  _50
REMARK   21  A    between atoms: _49  and  _52
REMARK   22  A    between atoms: _52  and  _53
REMARK   23  A    between atoms: _53  and  _54
REMARK   24  A    between atoms: _57  and  _59
REMARK   25  A    between atoms: _59  and  _60
REMARK   26  A    between atoms: _59  and  _62
REMARK   27  A    between atoms: _62  and  _63
REMARK   28  A    between atoms: _68  and  _70
REMARK   29  A    between atoms: _70  and  _71
REMARK   30  A    between atoms: _70  and  _73
REMARK   31  A    between atoms: _73  and  _74
REMARK   32  A    between atoms: _84  and  _86
REMARK   33  A    between atoms: _86  and  _87
REMARK   34  A    between atoms: _86  and  _89
REMARK   35  A    between atoms: _89  and  _90
REMARK   36  A    between atoms: _90  and  _91
REMARK   37  A    between atoms: _96  and  _98
REMARK   38  A    between atoms: _98  and  _99
REMARK   39  A    between atoms: _98  and  _101
REMARK   40  A    between atoms: _101  and  _102
REMARK   41  A    between atoms: _105  and  _107
REMARK   42  A    between atoms: _107  and  _108
REMARK   43  A    between atoms: _107  and  _110
REMARK   44  A    between atoms: _113  and  _115
REMARK   45  A    between atoms: _115  and  _116
REMARK   46  A    between atoms: _115  and  _118
REMARK   47  A    between atoms: _118  and  _119
REMARK   48  A    between atoms: _119  and  _247
REMARK   49  A    between atoms: _120  and  _122
REMARK   50  A    between atoms: _122  and  _123
REMARK   51  A    between atoms: _122  and  _125
REMARK   52  A    between atoms: _125  and  _126
REMARK   53  A    between atoms: _131  and  _133
REMARK   54  A    between atoms: _133  and  _134
REMARK   55  A    between atoms: _137  and  _139
REMARK   56  A    between atoms: _139  and  _140
REMARK   57  A    between atoms: _139  and  _142
REMARK   58  A    between atoms: _142  and  _143
REMARK   59  A    between atoms: _145  and  _147
REMARK   60  A    between atoms: _147  and  _148
REMARK   61  A    between atoms: _151  and  _153
REMARK   62  A    between atoms: _153  and  _154
REMARK   63  A    between atoms: _153  and  _156
REMARK   64  A    between atoms: _156  and  _157
REMARK   65  A    between atoms: _167  and  _169
REMARK   66  A    between atoms: _169  and  _170
REMARK   67  A    between atoms: _169  and  _172
REMARK   68  A    between atoms: _172  and  _173
REMARK   69  A    between atoms: _176  and  _178
REMARK   70  A    between atoms: _178  and  _179
REMARK   71  A    between atoms: _178  and  _181
REMARK   72  A    between atoms: _181  and  _182
REMARK   73  A    between atoms: _187  and  _188
REMARK   74  A    between atoms: _190  and  _192
REMARK   75  A    between atoms: _192  and  _193
REMARK   76  A    between atoms: _192  and  _195
REMARK   77  A    between atoms: _195  and  _196
REMARK   78  A    between atoms: _196  and  _197
REMARK   79  A    between atoms: _197  and  _198
REMARK   80  A    between atoms: _207  and  _209
REMARK   81  A    between atoms: _209  and  _210
REMARK   82  A    between atoms: _209  and  _212
REMARK   83  A    between atoms: _212  and  _213
REMARK   84  A    between atoms: _216  and  _218
REMARK   85  A    between atoms: _218  and  _219
REMARK   86  A    between atoms: _218  and  _221
REMARK   87  A    between atoms: _221  and  _222
REMARK   88  A    between atoms: _222  and  _223
REMARK   89  A    between atoms: _223  and  _224
REMARK   90  A    between atoms: _224  and  _225
REMARK   91  A    between atoms: _229  and  _231
REMARK   92  A    between atoms: _231  and  _232
REMARK   93  A    between atoms: _231  and  _234
REMARK   94  A    between atoms: _234  and  _235
REMARK   95  A    between atoms: _235  and  _236
REMARK   96  A    between atoms: _241  and  _243
REMARK   97  A    between atoms: _243  and  _244
REMARK   98  A    between atoms: _243  and  _246
REMARK   99  A    between atoms: _246  and  _247
REMARK  100  A    between atoms: _248  and  _250
REMARK  101  A    between atoms: _250  and  _251
REMARK  102  A    between atoms: _250  and  _253
REMARK  103  A    between atoms: _253  and  _254
REMARK  104  A    between atoms: _254  and  _255
REMARK  105  A    between atoms: _258  and  _260
REMARK  106  A    between atoms: _260  and  _261
REMARK  107  A    between atoms: _260  and  _263
REMARK  108  A    between atoms: _263  and  _264
REMARK  109  A    between atoms: _267  and  _269
REMARK  110  A    between atoms: _269  and  _270
REMARK  111  A    between atoms: _269  and  _272
REMARK  112  A    between atoms: _275  and  _277
REMARK  113  A    between atoms: _277  and  _278
REMARK  114  A    between atoms: _277  and  _280
REMARK  115  A    between atoms: _283  and  _285
REMARK  116  A    between atoms: _285  and  _286
REMARK  117  A    between atoms: _289  and  _291
REMARK  118  A    between atoms: _291  and  _292
REMARK  119  A    between atoms: _291  and  _294
REMARK  120  A    between atoms: _294  and  _295
REMARK  121  A    between atoms: _300  and  _302
REMARK  122  A    between atoms: _313  and  _316
REMARK  123  A    between atoms: _316  and  _317
REMARK  124  A    between atoms: _317  and  _318
REMARK  125  A    between atoms: _323  and  _326
REMARK  126  A    between atoms: _326  and  _327
REMARK  127  A    between atoms: _327  and  _328
REMARK  128  A    between atoms: _337  and  _338
REMARK  129  A    between atoms: _346  and  _348
REMARK  130  A    between atoms: _348  and  _349
REMARK  131  A    between atoms: _348  and  _351
REMARK  132  A    between atoms: _351  and  _352
REMARK  133  A    between atoms: _355  and  _357
REMARK  134  A    between atoms: _357  and  _358
REMARK  135  A    between atoms: _357  and  _360
REMARK  136  A    between atoms: _360  and  _361
REMARK  137  A    between atoms: _366  and  _367
REMARK  138  A    between atoms: _369  and  _371
REMARK  139  A    between atoms: _371  and  _372
REMARK  140  A    between atoms: _371  and  _374
REMARK  141  A    between atoms: _374  and  _375
REMARK  142  A    between atoms: _381  and  _383
REMARK  143  A    between atoms: _383  and  _384
REMARK  144  A    between atoms: _383  and  _386
REMARK  145  A    between atoms: _386  and  _387
REMARK  146  A    between atoms: _392  and  _393
REMARK  147  A    between atoms: _395  and  _397
REMARK  148  A    between atoms: _397  and  _398
REMARK  149  A    between atoms: _397  and  _400
REMARK  150  A    between atoms: _400  and  _401
REMARK  151  A    between atoms: _401  and  _402
REMARK  152  A    between atoms: _402  and  _403
REMARK  153  A    between atoms: _412  and  _414
REMARK  154  A    between atoms: _414  and  _415
REMARK  155  A    between atoms: _414  and  _417
REMARK  156  A    between atoms: _417  and  _418
REMARK  157  A    between atoms: _418  and  _419
REMARK  158  A    between atoms: _422  and  _424
REMARK  159  A    between atoms: _424  and  _425
REMARK  160  A    between atoms: _427  and  _429
REMARK  161  A    between atoms: _429  and  _430
REMARK  162  A    between atoms: _429  and  _432
REMARK  163  A    between atoms: _432  and  _433
REMARK  164  A    between atoms: _439  and  _440
REMARK  165  A    between atoms: _445  and  _447
REMARK  166  A    between atoms: _447  and  _448
REMARK  167  A    between atoms: _447  and  _450
REMARK  168  A    between atoms: _450  and  _451
REMARK  169  A    between atoms: _457  and  _459
REMARK  170  A    between atoms: _459  and  _460
REMARK  171  A    between atoms: _459  and  _462
REMARK  172  A    between atoms: _462  and  _463
REMARK  173  A    between atoms: _468  and  _470
REMARK  174  A    between atoms: _470  and  _471
REMARK  175  A    between atoms: _470  and  _473
REMARK  176  A    between atoms: _473  and  _474
REMARK  177  A    between atoms: _474  and  _475
REMARK  178  A    between atoms: _475  and  _476
REMARK  179  A    between atoms: _476  and  ZN_722
REMARK  180  A    between atoms: _478  and  _480
REMARK  181  A    between atoms: _480  and  _481
REMARK  182  A    between atoms: _484  and  _486
REMARK  183  A    between atoms: _486  and  _487
REMARK  184  A    between atoms: _489  and  _491
REMARK  185  A    between atoms: _491  and  _492
REMARK  186  A    between atoms: _491  and  _494
REMARK  187  A    between atoms: _494  and  _495
REMARK  188  A    between atoms: _498  and  _500
REMARK  189  A    between atoms: _500  and  _501
REMARK  190  A    between atoms: _504  and  _506
REMARK  191  A    between atoms: _506  and  _507
REMARK  192  A    between atoms: _506  and  _509
REMARK  193  A    between atoms: _509  and  _510
REMARK  194  A    between atoms: _513  and  _515
REMARK  195  A    between atoms: _515  and  _516
REMARK  196  A    between atoms: _515  and  _518
REMARK  197  A    between atoms: _518  and  _519
REMARK  198  A    between atoms: _519  and  _520
REMARK  199  A    between atoms: _520  and  _521
REMARK  200  A    between atoms: _521  and  _522
REMARK  201  A    between atoms: _526  and  _528
REMARK  202  A    between atoms: _528  and  _529
REMARK  203  A    between atoms: _528  and  _531
REMARK  204  A    between atoms: _531  and  _532
REMARK  205  A    between atoms: _538  and  _540
REMARK  206  A    between atoms: _540  and  _541
REMARK  207  A    between atoms: _540  and  _543
REMARK  208  A    between atoms: _543  and  _544
REMARK  209  A    between atoms: _550  and  _552
REMARK  210  A    between atoms: _552  and  _553
REMARK  211  A    between atoms: _552  and  _555
REMARK  212  A    between atoms: _555  and  _556
REMARK  213  A    between atoms: _558  and  _560
REMARK  214  A    between atoms: _560  and  _561
REMARK  215  A    between atoms: _560  and  _563
REMARK  216  A    between atoms: _566  and  _568
REMARK  217  A    between atoms: _568  and  _569
REMARK  218  A    between atoms: _568  and  _571
REMARK  219  A    between atoms: _571  and  _572
REMARK  220  A    between atoms: _572  and  _573
REMARK  221  A    between atoms: _573  and  _574
REMARK  222  A    between atoms: _574  and  _575
REMARK  223  A    between atoms: _579  and  _581
REMARK  224  A    between atoms: _581  and  _582
REMARK  225  A    between atoms: _581  and  _584
REMARK  226  A    between atoms: _584  and  _585
REMARK  227  A    between atoms: _591  and  _593
REMARK  228  A    between atoms: _593  and  _594
REMARK  229  A    between atoms: _593  and  _596
REMARK  230  A    between atoms: _596  and  _597
REMARK  231  A    between atoms: _602  and  _604
REMARK  232  A    between atoms: _604  and  _605
REMARK  233  A    between atoms: _604  and  _607
REMARK  234  A    between atoms: _607  and  _608
REMARK  235  A    between atoms: _610  and  _612
REMARK  236  A    between atoms: _612  and  _613
REMARK  237  A    between atoms: _612  and  _615
REMARK  238  A    between atoms: _615  and  _616
REMARK  239  A    between atoms: _618  and  _620
REMARK  240  A    between atoms: _620  and  _621
REMARK  241  A    between atoms: _620  and  _623
REMARK  242  A    between atoms: _627  and  _628
REMARK  243  A    between atoms: _633  and  _635
REMARK  244  A    between atoms: _635  and  _636
REMARK  245  A    between atoms: _635  and  _638
REMARK  246  A    between atoms: _638  and  _639
REMARK  247  A    between atoms: _644  and  _645
REMARK  248  A    between atoms: _647  and  _649
REMARK  249  A    between atoms: _649  and  _650
REMARK  250  A    between atoms: _649  and  _652
REMARK  251  A    between atoms: _652  and  _653
REMARK  252  A    between atoms: _653  and  _654
REMARK  253  A    between atoms: _654  and  _655
REMARK  254  A    between atoms: _664  and  _666
REMARK  255  A    between atoms: _666  and  _667
REMARK  256  A    between atoms: _666  and  _669
REMARK  257  A    between atoms: _669  and  _670
REMARK  258  A    between atoms: _675  and  _676
REMARK  259  A    between atoms: _678  and  _680
REMARK  260  A    between atoms: _680  and  _681
REMARK  261  A    between atoms: _680  and  _683
REMARK  262  A    between atoms: _683  and  _684
REMARK  263  A    between atoms: _690  and  _692
REMARK  264  A    between atoms: _692  and  _693
REMARK  265  A    between atoms: _692  and  _695
REMARK  266  A    between atoms: _695  and  _696
REMARK  267  A    between atoms: _698  and  _700
REMARK  268  A    between atoms: _700  and  _701
REMARK  269  A    between atoms: _700  and  _703
REMARK  270  A    between atoms: _703  and  _704
REMARK  271  A    between atoms: _710  and  _712
REMARK  272  A    between atoms: _712  and  _713
REMARK  273  A    between atoms: _712  and  _715
REMARK  274  A    between atoms: _715  and  _716
REMARK  275  A    between atoms: _716  and  _717
REMARK                            x       y       z     vdW  Elec       q    Type
REMARK                         _______ _______ _______ _____ _____    ______ ____
ROOT
ATOM      1  O   HOH     1      41.576  43.526  47.732  0.00  0.00    +0.000 OA
ENDROOT
TORSDOF 0
REMARK  Name = ../refined-set-2016/2oc2/2oc2_pocket.pdb
REMARK  275 active torsions:
REMARK  status: ('A' for Active; 'I' for Inactive)
REMARK    1  A    between atoms: _1  and  _3
REMARK    2  A    between atoms: _3  and  _4
REMARK    3  A    between atoms: _3  and  _6
REMARK    4  A    between atoms: _6  and  _7
REMARK    5  A    between atoms: _12  and  _14
REMARK    6  A    between atoms: _14  and  _15
REMARK    7  A    between atoms: _14  and  _17
REMARK    8  A    between atoms: _17  and  _18
REMARK    9  A    between atoms: _23  and  _25
REMARK   10  A    between atoms: _25  and  _26
REMARK   11  A    between atoms: _25  and  _28
REMARK   12  A    between atoms: _28  and  _29
REMARK   13  A    between atoms: _29  and  _30
REMARK   14  A    between atoms: _33  and  _35
REMARK   15  A    between atoms: _35  and  _36
REMARK   16  A    between atoms: _35  and  _38
REMARK   17  A    between atoms: _38  and  _39
REMARK   18  A    between atoms: _44  and  _45
REMARK   19  A    between atoms: _47  and  _49
REMARK   20  A    between atoms: _49  and  _50
REMARK   21  A    between atoms: _49  and  _52
REMARK   22  A    between atoms: _52  and  _53
REMARK   23  A    between atoms: _53  and  _54
REMARK   24  A    between atoms: _57  and  _59
REMARK   25  A    between atoms: _59  and  _60
REMARK   26  A    between atoms: _59  and  _62
REMARK   27  A    between atoms: _62  and  _63
REMARK   28  A    between atoms: _68  and  _70
REMARK   29  A    between atoms: _70  and  _71
REMARK   30  A    between atoms: _70  and  _73
REMARK   31  A    between atoms: _73  and  _74
REMARK   32  A    between atoms: _84  and  _86
REMARK   33  A    between atoms: _86  and  _87
REMARK   34  A    between atoms: _86  and  _89
REMARK   35  A    between atoms: _89  and  _90
REMARK   36  A    between atoms: _90  and  _91
REMARK   37  A    between atoms: _96  and  _98
REMARK   38  A    between atoms: _98  and  _99
REMARK   39  A    between atoms: _98  and  _101
REMARK   40  A    between atoms: _101  and  _102
REMARK   41  A    between atoms: _105  and  _107
REMARK   42  A    between atoms: _107  and  _108
REMARK   43  A    between atoms: _107  and  _110
REMARK   44  A    between atoms: _113  and  _115
REMARK   45  A    between atoms: _115  and  _116
REMARK   46  A    between atoms: _115  and  _118
REMARK   47  A    between atoms: _118  and  _119
REMARK   48  A    between atoms: _119  and  _247
REMARK   49  A    between atoms: _120  and  _122
REMARK   50  A    between atoms: _122  and  _123
REMARK   51  A    between atoms: _122  and  _125
REMARK   52  A    between atoms: _125  and  _126
REMARK   53  A    between atoms: _131  and  _133
REMARK   54  A    between atoms: _133  and  _134
REMARK   55  A    between atoms: _137  and  _139
REMARK   56  A    between atoms: _139  and  _140
REMARK   57  A    between atoms: _139  and  _142
REMARK   58  A    between atoms: _142  and  _143
REMARK   59  A    between atoms: _145  and  _147
REMARK   60  A    between atoms: _147  and  _148
REMARK   61  A    between atoms: _151  and  _153
REMARK   62  A    between atoms: _153  and  _154
REMARK   63  A    between atoms: _153  and  _156
REMARK   64  A    between atoms: _156  and  _157
REMARK   65  A    between atoms: _167  and  _169
REMARK   66  A    between atoms: _169  and  _170
REMARK   67  A    between atoms: _169  and  _172
REMARK   68  A    between atoms: _172  and  _173
REMARK   69  A    between atoms: _176  and  _178
REMARK   70  A    between atoms: _178  and  _179
REMARK   71  A    between atoms: _178  and  _181
REMARK   72  A    between atoms: _181  and  _182
REMARK   73  A    between atoms: _187  and  _188
REMARK   74  A    between atoms: _190  and  _192
REMARK   75  A    between atoms: _192  and  _193
REMARK   76  A    between atoms: _192  and  _195
REMARK   77  A    between atoms: _195  and  _196
REMARK   78  A    between atoms: _196  and  _197
REMARK   79  A    between atoms: _197  and  _198
REMARK   80  A    between atoms: _207  and  _209
REMARK   81  A    between atoms: _209  and  _210
REMARK   82  A    between atoms: _209  and  _212
REMARK   83  A    between atoms: _212  and  _213
REMARK   84  A    between atoms: _216  and  _218
REMARK   85  A    between atoms: _218  and  _219
REMARK   86  A    between atoms: _218  and  _221
REMARK   87  A    between atoms: _221  and  _222
REMARK   88  A    between atoms: _222  and  _223
REMARK   89  A    between atoms: _223  and  _224
REMARK   90  A    between atoms: _224  and  _225
REMARK   91  A    between atoms: _229  and  _231
REMARK   92  A    between atoms: _231  and  _232
REMARK   93  A    between atoms: _231  and  _234
REMARK   94  A    between atoms: _234  and  _235
REMARK   95  A    between atoms: _235  and  _236
REMARK   96  A    between atoms: _241  and  _243
REMARK   97  A    between atoms: _243  and  _244
REMARK   98  A    between atoms: _243  and  _246
REMARK   99  A    between atoms: _246  and  _247
REMARK  100  A    between atoms: _248  and  _250
REMARK  101  A    between atoms: _250  and  _251
REMARK  102  A    between atoms: _250  and  _253
REMARK  103  A    between atoms: _253  and  _254
REMARK  104  A    between atoms: _254  and  _255
REMARK  105  A    between atoms: _258  and  _260
REMARK  106  A    between atoms: _260  and  _261
REMARK  107  A    between atoms: _260  and  _263
REMARK  108  A    between atoms: _263  and  _264
REMARK  109  A    between atoms: _267  and  _269
REMARK  110  A    between atoms: _269  and  _270
REMARK  111  A    between atoms: _269  and  _272
REMARK  112  A    between atoms: _275  and  _277
REMARK  113  A    between atoms: _277  and  _278
REMARK  114  A    between atoms: _277  and  _280
REMARK  115  A    between atoms: _283  and  _285
REMARK  116  A    between atoms: _285  and  _286
REMARK  117  A    between atoms: _289  and  _291
REMARK  118  A    between atoms: _291  and  _292
REMARK  119  A    between atoms: _291  and  _294
REMARK  120  A    between atoms: _294  and  _295
REMARK  121  A    between atoms: _300  and  _302
REMARK  122  A    between atoms: _313  and  _316
REMARK  123  A    between atoms: _316  and  _317
REMARK  124  A    between atoms: _317  and  _318
REMARK  125  A    between atoms: _323  and  _326
REMARK  126  A    between atoms: _326  and  _327
REMARK  127  A    between atoms: _327  and  _328
REMARK  128  A    between atoms: _337  and  _338
REMARK  129  A    between atoms: _346  and  _348
REMARK  130  A    between atoms: _348  and  _349
REMARK  131  A    between atoms: _348  and  _351
REMARK  132  A    between atoms: _351  and  _352
REMARK  133  A    between atoms: _355  and  _357
REMARK  134  A    between atoms: _357  and  _358
REMARK  135  A    between atoms: _357  and  _360
REMARK  136  A    between atoms: _360  and  _361
REMARK  137  A    between atoms: _366  and  _367
REMARK  138  A    between atoms: _369  and  _371
REMARK  139  A    between atoms: _371  and  _372
REMARK  140  A    between atoms: _371  and  _374
REMARK  141  A    between atoms: _374  and  _375
REMARK  142  A    between atoms: _381  and  _383
REMARK  143  A    between atoms: _383  and  _384
REMARK  144  A    between atoms: _383  and  _386
REMARK  145  A    between atoms: _386  and  _387
REMARK  146  A    between atoms: _392  and  _393
REMARK  147  A    between atoms: _395  and  _397
REMARK  148  A    between atoms: _397  and  _398
REMARK  149  A    between atoms: _397  and  _400
REMARK  150  A    between atoms: _400  and  _401
REMARK  151  A    between atoms: _401  and  _402
REMARK  152  A    between atoms: _402  and  _403
REMARK  153  A    between atoms: _412  and  _414
REMARK  154  A    between atoms: _414  and  _415
REMARK  155  A    between atoms: _414  and  _417
REMARK  156  A    between atoms: _417  and  _418
REMARK  157  A    between atoms: _418  and  _419
REMARK  158  A    between atoms: _422  and  _424
REMARK  159  A    between atoms: _424  and  _425
REMARK  160  A    between atoms: _427  and  _429
REMARK  161  A    between atoms: _429  and  _430
REMARK  162  A    between atoms: _429  and  _432
REMARK  163  A    between atoms: _432  and  _433
REMARK  164  A    between atoms: _439  and  _440
REMARK  165  A    between atoms: _445  and  _447
REMARK  166  A    between atoms: _447  and  _448
REMARK  167  A    between atoms: _447  and  _450
REMARK  168  A    between atoms: _450  and  _451
REMARK  169  A    between atoms: _457  and  _459
REMARK  170  A    between atoms: _459  and  _460
REMARK  171  A    between atoms: _459  and  _462
REMARK  172  A    between atoms: _462  and  _463
REMARK  173  A    between atoms: _468  and  _470
REMARK  174  A    between atoms: _470  and  _471
REMARK  175  A    between atoms: _470  and  _473
REMARK  176  A    between atoms: _473  and  _474
REMARK  177  A    between atoms: _474  and  _475
REMARK  178  A    between atoms: _475  and  _476
REMARK  179  A    between atoms: _476  and  ZN_722
REMARK  180  A    between atoms: _478  and  _480
REMARK  181  A    between atoms: _480  and  _481
REMARK  182  A    between atoms: _484  and  _486
REMARK  183  A    between atoms: _486  and  _487
REMARK  184  A    between atoms: _489  and  _491
REMARK  185  A    between atoms: _491  and  _492
REMARK  186  A    between atoms: _491  and  _494
REMARK  187  A    between atoms: _494  and  _495
REMARK  188  A    between atoms: _498  and  _500
REMARK  189  A    between atoms: _500  and  _501
REMARK  190  A    between atoms: _504  and  _506
REMARK  191  A    between atoms: _506  and  _507
REMARK  192  A    between atoms: _506  and  _509
REMARK  193  A    between atoms: _509  and  _510
REMARK  194  A    between atoms: _513  and  _515
REMARK  195  A    between atoms: _515  and  _516
REMARK  196  A    between atoms: _515  and  _518
REMARK  197  A    between atoms: _518  and  _519
REMARK  198  A    between atoms: _519  and  _520
REMARK  199  A    between atoms: _520  and  _521
REMARK  200  A    between atoms: _521  and  _522
REMARK  201  A    between atoms: _526  and  _528
REMARK  202  A    between atoms: _528  and  _529
REMARK  203  A    between atoms: _528  and  _531
REMARK  204  A    between atoms: _531  and  _532
REMARK  205  A    between atoms: _538  and  _540
REMARK  206  A    between atoms: _540  and  _541
REMARK  207  A    between atoms: _540  and  _543
REMARK  208  A    between atoms: _543  and  _544
REMARK  209  A    between atoms: _550  and  _552
REMARK  210  A    between atoms: _552  and  _553
REMARK  211  A    between atoms: _552  and  _555
REMARK  212  A    between atoms: _555  and  _556
REMARK  213  A    between atoms: _558  and  _560
REMARK  214  A    between atoms: _560  and  _561
REMARK  215  A    between atoms: _560  and  _563
REMARK  216  A    between atoms: _566  and  _568
REMARK  217  A    between atoms: _568  and  _569
REMARK  218  A    between atoms: _568  and  _571
REMARK  219  A    between atoms: _571  and  _572
REMARK  220  A    between atoms: _572  and  _573
REMARK  221  A    between atoms: _573  and  _574
REMARK  222  A    between atoms: _574  and  _575
REMARK  223  A    between atoms: _579  and  _581
REMARK  224  A    between atoms: _581  and  _582
REMARK  225  A    between atoms: _581  and  _584
REMARK  226  A    between atoms: _584  and  _585
REMARK  227  A    between atoms: _591  and  _593
REMARK  228  A    between atoms: _593  and  _594
REMARK  229  A    between atoms: _593  and  _596
REMARK  230  A    between atoms: _596  and  _597
REMARK  231  A    between atoms: _602  and  _604
REMARK  232  A    between atoms: _604  and  _605
REMARK  233  A    between atoms: _604  and  _607
REMARK  234  A    between atoms: _607  and  _608
REMARK  235  A    between atoms: _610  and  _612
REMARK  236  A    between atoms: _612  and  _613
REMARK  237  A    between atoms: _612  and  _615
REMARK  238  A    between atoms: _615  and  _616
REMARK  239  A    between atoms: _618  and  _620
REMARK  240  A    between atoms: _620  and  _621
REMARK  241  A    between atoms: _620  and  _623
REMARK  242  A    between atoms: _627  and  _628
REMARK  243  A    between atoms: _633  and  _635
REMARK  244  A    between atoms: _635  and  _636
REMARK  245  A    between atoms: _635  and  _638
REMARK  246  A    between atoms: _638  and  _639
REMARK  247  A    between atoms: _644  and  _645
REMARK  248  A    between atoms: _647  and  _649
REMARK  249  A    between atoms: _649  and  _650
REMARK  250  A    between atoms: _649  and  _652
REMARK  251  A    between atoms: _652  and  _653
REMARK  252  A    between atoms: _653  and  _654
REMARK  253  A    between atoms: _654  and  _655
REMARK  254  A    between atoms: _664  and  _666
REMARK  255  A    between atoms: _666  and  _667
REMARK  256  A    between atoms: _666  and  _669
REMARK  257  A    between atoms: _669  and  _670
REMARK  258  A    between atoms: _675  and  _676
REMARK  259  A    between atoms: _678  and  _680
REMARK  260  A    between atoms: _680  and  _681
REMARK  261  A    between atoms: _680  and  _683
REMARK  262  A    between atoms: _683  and  _684
REMARK  263  A    between atoms: _690  and  _692
REMARK  264  A    between atoms: _692  and  _693
REMARK  265  A    between atoms: _692  and  _695
REMARK  266  A    between atoms: _695  and  _696
REMARK  267  A    between atoms: _698  and  _700
REMARK  268  A    between atoms: _700  and  _701
REMARK  269  A    between atoms: _700  and  _703
REMARK  270  A    between atoms: _703  and  _704
REMARK  271  A    between atoms: _710  and  _712
REMARK  272  A    between atoms: _712  and  _713
REMARK  273  A    between atoms: _712  and  _715
REMARK  274  A    between atoms: _715  and  _716
REMARK  275  A    between atoms: _716  and  _717
REMARK                            x       y       z     vdW  Elec       q    Type
REMARK                         _______ _______ _______ _____ _____    ______ ____
ROOT
ATOM      1  O   HOH     1      36.292  29.438  43.662  0.00  0.00    +0.000 OA
ENDROOT
TORSDOF 0
REMARK  Name = ../refined-set-2016/2oc2/2oc2_pocket.pdb
REMARK  275 active torsions:
REMARK  status: ('A' for Active; 'I' for Inactive)
REMARK    1  A    between atoms: _1  and  _3
REMARK    2  A    between atoms: _3  and  _4
REMARK    3  A    between atoms: _3  and  _6
REMARK    4  A    between atoms: _6  and  _7
REMARK    5  A    between atoms: _12  and  _14
REMARK    6  A    between atoms: _14  and  _15
REMARK    7  A    between atoms: _14  and  _17
REMARK    8  A    between atoms: _17  and  _18
REMARK    9  A    between atoms: _23  and  _25
REMARK   10  A    between atoms: _25  and  _26
REMARK   11  A    between atoms: _25  and  _28
REMARK   12  A    between atoms: _28  and  _29
REMARK   13  A    between atoms: _29  and  _30
REMARK   14  A    between atoms: _33  and  _35
REMARK   15  A    between atoms: _35  and  _36
REMARK   16  A    between atoms: _35  and  _38
REMARK   17  A    between atoms: _38  and  _39
REMARK   18  A    between atoms: _44  and  _45
REMARK   19  A    between atoms: _47  and  _49
REMARK   20  A    between atoms: _49  and  _50
REMARK   21  A    between atoms: _49  and  _52
REMARK   22  A    between atoms: _52  and  _53
REMARK   23  A    between atoms: _53  and  _54
REMARK   24  A    between atoms: _57  and  _59
REMARK   25  A    between atoms: _59  and  _60
REMARK   26  A    between atoms: _59  and  _62
REMARK   27  A    between atoms: _62  and  _63
REMARK   28  A    between atoms: _68  and  _70
REMARK   29  A    between atoms: _70  and  _71
REMARK   30  A    between atoms: _70  and  _73
REMARK   31  A    between atoms: _73  and  _74
REMARK   32  A    between atoms: _84  and  _86
REMARK   33  A    between atoms: _86  and  _87
REMARK   34  A    between atoms: _86  and  _89
REMARK   35  A    between atoms: _89  and  _90
REMARK   36  A    between atoms: _90  and  _91
REMARK   37  A    between atoms: _96  and  _98
REMARK   38  A    between atoms: _98  and  _99
REMARK   39  A    between atoms: _98  and  _101
REMARK   40  A    between atoms: _101  and  _102
REMARK   41  A    between atoms: _105  and  _107
REMARK   42  A    between atoms: _107  and  _108
REMARK   43  A    between atoms: _107  and  _110
REMARK   44  A    between atoms: _113  and  _115
REMARK   45  A    between atoms: _115  and  _116
REMARK   46  A    between atoms: _115  and  _118
REMARK   47  A    between atoms: _118  and  _119
REMARK   48  A    between atoms: _119  and  _247
REMARK   49  A    between atoms: _120  and  _122
REMARK   50  A    between atoms: _122  and  _123
REMARK   51  A    between atoms: _122  and  _125
REMARK   52  A    between atoms: _125  and  _126
REMARK   53  A    between atoms: _131  and  _133
REMARK   54  A    between atoms: _133  and  _134
REMARK   55  A    between atoms: _137  and  _139
REMARK   56  A    between atoms: _139  and  _140
REMARK   57  A    between atoms: _139  and  _142
REMARK   58  A    between atoms: _142  and  _143
REMARK   59  A    between atoms: _145  and  _147
REMARK   60  A    between atoms: _147  and  _148
REMARK   61  A    between atoms: _151  and  _153
REMARK   62  A    between atoms: _153  and  _154
REMARK   63  A    between atoms: _153  and  _156
REMARK   64  A    between atoms: _156  and  _157
REMARK   65  A    between atoms: _167  and  _169
REMARK   66  A    between atoms: _169  and  _170
REMARK   67  A    between atoms: _169  and  _172
REMARK   68  A    between atoms: _172  and  _173
REMARK   69  A    between atoms: _176  and  _178
REMARK   70  A    between atoms: _178  and  _179
REMARK   71  A    between atoms: _178  and  _181
REMARK   72  A    between atoms: _181  and  _182
REMARK   73  A    between atoms: _187  and  _188
REMARK   74  A    between atoms: _190  and  _192
REMARK   75  A    between atoms: _192  and  _193
REMARK   76  A    between atoms: _192  and  _195
REMARK   77  A    between atoms: _195  and  _196
REMARK   78  A    between atoms: _196  and  _197
REMARK   79  A    between atoms: _197  and  _198
REMARK   80  A    between atoms: _207  and  _209
REMARK   81  A    between atoms: _209  and  _210
REMARK   82  A    between atoms: _209  and  _212
REMARK   83  A    between atoms: _212  and  _213
REMARK   84  A    between atoms: _216  and  _218
REMARK   85  A    between atoms: _218  and  _219
REMARK   86  A    between atoms: _218  and  _221
REMARK   87  A    between atoms: _221  and  _222
REMARK   88  A    between atoms: _222  and  _223
REMARK   89  A    between atoms: _223  and  _224
REMARK   90  A    between atoms: _224  and  _225
REMARK   91  A    between atoms: _229  and  _231
REMARK   92  A    between atoms: _231  and  _232
REMARK   93  A    between atoms: _231  and  _234
REMARK   94  A    between atoms: _234  and  _235
REMARK   95  A    between atoms: _235  and  _236
REMARK   96  A    between atoms: _241  and  _243
REMARK   97  A    between atoms: _243  and  _244
REMARK   98  A    between atoms: _243  and  _246
REMARK   99  A    between atoms: _246  and  _247
REMARK  100  A    between atoms: _248  and  _250
REMARK  101  A    between atoms: _250  and  _251
REMARK  102  A    between atoms: _250  and  _253
REMARK  103  A    between atoms: _253  and  _254
REMARK  104  A    between atoms: _254  and  _255
REMARK  105  A    between atoms: _258  and  _260
REMARK  106  A    between atoms: _260  and  _261
REMARK  107  A    between atoms: _260  and  _263
REMARK  108  A    between atoms: _263  and  _264
REMARK  109  A    between atoms: _267  and  _269
REMARK  110  A    between atoms: _269  and  _270
REMARK  111  A    between atoms: _269  and  _272
REMARK  112  A    between atoms: _275  and  _277
REMARK  113  A    between atoms: _277  and  _278
REMARK  114  A    between atoms: _277  and  _280
REMARK  115  A    between atoms: _283  and  _285
REMARK  116  A    between atoms: _285  and  _286
REMARK  117  A    between atoms: _289  and  _291
REMARK  118  A    between atoms: _291  and  _292
REMARK  119  A    between atoms: _291  and  _294
REMARK  120  A    between atoms: _294  and  _295
REMARK  121  A    between atoms: _300  and  _302
REMARK  122  A    between atoms: _313  and  _316
REMARK  123  A    between atoms: _316  and  _317
REMARK  124  A    between atoms: _317  and  _318
REMARK  125  A    between atoms: _323  and  _326
REMARK  126  A    between atoms: _326  and  _327
REMARK  127  A    between atoms: _327  and  _328
REMARK  128  A    between atoms: _337  and  _338
REMARK  129  A    between atoms: _346  and  _348
REMARK  130  A    between atoms: _348  and  _349
REMARK  131  A    between atoms: _348  and  _351
REMARK  132  A    between atoms: _351  and  _352
REMARK  133  A    between atoms: _355  and  _357
REMARK  134  A    between atoms: _357  and  _358
REMARK  135  A    between atoms: _357  and  _360
REMARK  136  A    between atoms: _360  and  _361
REMARK  137  A    between atoms: _366  and  _367
REMARK  138  A    between atoms: _369  and  _371
REMARK  139  A    between atoms: _371  and  _372
REMARK  140  A    between atoms: _371  and  _374
REMARK  141  A    between atoms: _374  and  _375
REMARK  142  A    between atoms: _381  and  _383
REMARK  143  A    between atoms: _383  and  _384
REMARK  144  A    between atoms: _383  and  _386
REMARK  145  A    between atoms: _386  and  _387
REMARK  146  A    between atoms: _392  and  _393
REMARK  147  A    between atoms: _395  and  _397
REMARK  148  A    between atoms: _397  and  _398
REMARK  149  A    between atoms: _397  and  _400
REMARK  150  A    between atoms: _400  and  _401
REMARK  151  A    between atoms: _401  and  _402
REMARK  152  A    between atoms: _402  and  _403
REMARK  153  A    between atoms: _412  and  _414
REMARK  154  A    between atoms: _414  and  _415
REMARK  155  A    between atoms: _414  and  _417
REMARK  156  A    between atoms: _417  and  _418
REMARK  157  A    between atoms: _418  and  _419
REMARK  158  A    between atoms: _422  and  _424
REMARK  159  A    between atoms: _424  and  _425
REMARK  160  A    between atoms: _427  and  _429
REMARK  161  A    between atoms: _429  and  _430
REMARK  162  A    between atoms: _429  and  _432
REMARK  163  A    between atoms: _432  and  _433
REMARK  164  A    between atoms: _439  and  _440
REMARK  165  A    between atoms: _445  and  _447
REMARK  166  A    between atoms: _447  and  _448
REMARK  167  A    between atoms: _447  and  _450
REMARK  168  A    between atoms: _450  and  _451
REMARK  169  A    between atoms: _457  and  _459
REMARK  170  A    between atoms: _459  and  _460
REMARK  171  A    between atoms: _459  and  _462
REMARK  172  A    between atoms: _462  and  _463
REMARK  173  A    between atoms: _468  and  _470
REMARK  174  A    between atoms: _470  and  _471
REMARK  175  A    between atoms: _470  and  _473
REMARK  176  A    between atoms: _473  and  _474
REMARK  177  A    between atoms: _474  and  _475
REMARK  178  A    between atoms: _475  and  _476
REMARK  179  A    between atoms: _476  and  ZN_722
REMARK  180  A    between atoms: _478  and  _480
REMARK  181  A    between atoms: _480  and  _481
REMARK  182  A    between atoms: _484  and  _486
REMARK  183  A    between atoms: _486  and  _487
REMARK  184  A    between atoms: _489  and  _491
REMARK  185  A    between atoms: _491  and  _492
REMARK  186  A    between atoms: _491  and  _494
REMARK  187  A    between atoms: _494  and  _495
REMARK  188  A    between atoms: _498  and  _500
REMARK  189  A    between atoms: _500  and  _501
REMARK  190  A    between atoms: _504  and  _506
REMARK  191  A    between atoms: _506  and  _507
REMARK  192  A    between atoms: _506  and  _509
REMARK  193  A    between atoms: _509  and  _510
REMARK  194  A    between atoms: _513  and  _515
REMARK  195  A    between atoms: _515  and  _516
REMARK  196  A    between atoms: _515  and  _518
REMARK  197  A    between atoms: _518  and  _519
REMARK  198  A    between atoms: _519  and  _520
REMARK  199  A    between atoms: _520  and  _521
REMARK  200  A    between atoms: _521  and  _522
REMARK  201  A    between atoms: _526  and  _528
REMARK  202  A    between atoms: _528  and  _529
REMARK  203  A    between atoms: _528  and  _531
REMARK  204  A    between atoms: _531  and  _532
REMARK  205  A    between atoms: _538  and  _540
REMARK  206  A    between atoms: _540  and  _541
REMARK  207  A    between atoms: _540  and  _543
REMARK  208  A    between atoms: _543  and  _544
REMARK  209  A    between atoms: _550  and  _552
REMARK  210  A    between atoms: _552  and  _553
REMARK  211  A    between atoms: _552  and  _555
REMARK  212  A    between atoms: _555  and  _556
REMARK  213  A    between atoms: _558  and  _560
REMARK  214  A    between atoms: _560  and  _561
REMARK  215  A    between atoms: _560  and  _563
REMARK  216  A    between atoms: _566  and  _568
REMARK  217  A    between atoms: _568  and  _569
REMARK  218  A    between atoms: _568  and  _571
REMARK  219  A    between atoms: _571  and  _572
REMARK  220  A    between atoms: _572  and  _573
REMARK  221  A    between atoms: _573  and  _574
REMARK  222  A    between atoms: _574  and  _575
REMARK  223  A    between atoms: _579  and  _581
REMARK  224  A    between atoms: _581  and  _582
REMARK  225  A    between atoms: _581  and  _584
REMARK  226  A    between atoms: _584  and  _585
REMARK  227  A    between atoms: _591  and  _593
REMARK  228  A    between atoms: _593  and  _594
REMARK  229  A    between atoms: _593  and  _596
REMARK  230  A    between atoms: _596  and  _597
REMARK  231  A    between atoms: _602  and  _604
REMARK  232  A    between atoms: _604  and  _605
REMARK  233  A    between atoms: _604  and  _607
REMARK  234  A    between atoms: _607  and  _608
REMARK  235  A    between atoms: _610  and  _612
REMARK  236  A    between atoms: _612  and  _613
REMARK  237  A    between atoms: _612  and  _615
REMARK  238  A    between atoms: _615  and  _616
REMARK  239  A    between atoms: _618  and  _620
REMARK  240  A    between atoms: _620  and  _621
REMARK  241  A    between atoms: _620  and  _623
REMARK  242  A    between atoms: _627  and  _628
REMARK  243  A    between atoms: _633  and  _635
REMARK  244  A    between atoms: _635  and  _636
REMARK  245  A    between atoms: _635  and  _638
REMARK  246  A    between atoms: _638  and  _639
REMARK  247  A    between atoms: _644  and  _645
REMARK  248  A    between atoms: _647  and  _649
REMARK  249  A    between atoms: _649  and  _650
REMARK  250  A    between atoms: _649  and  _652
REMARK  251  A    between atoms: _652  and  _653
REMARK  252  A    between atoms: _653  and  _654
REMARK  253  A    between atoms: _654  and  _655
REMARK  254  A    between atoms: _664  and  _666
REMARK  255  A    between atoms: _666  and  _667
REMARK  256  A    between atoms: _666  and  _669
REMARK  257  A    between atoms: _669  and  _670
REMARK  258  A    between atoms: _675  and  _676
REMARK  259  A    between atoms: _678  and  _680
REMARK  260  A    between atoms: _680  and  _681
REMARK  261  A    between atoms: _680  and  _683
REMARK  262  A    between atoms: _683  and  _684
REMARK  263  A    between atoms: _690  and  _692
REMARK  264  A    between atoms: _692  and  _693
REMARK  265  A    between atoms: _692  and  _695
REMARK  266  A    between atoms: _695  and  _696
REMARK  267  A    between atoms: _698  and  _700
REMARK  268  A    between atoms: _700  and  _701
REMARK  269  A    between atoms: _700  and  _703
REMARK  270  A    between atoms: _703  and  _704
REMARK  271  A    between atoms: _710  and  _712
REMARK  272  A    between atoms: _712  and  _713
REMARK  273  A    between atoms: _712  and  _715
REMARK  274  A    between atoms: _715  and  _716
REMARK  275  A    between atoms: _716  and  _717
REMARK                            x       y       z     vdW  Elec       q    Type
REMARK                         _______ _______ _______ _____ _____    ______ ____
ROOT
ATOM      1  O   HOH     1      42.196  42.359  57.095  0.00  0.00    +0.000 OA
ENDROOT
TORSDOF 0
REMARK  Name = ../refined-set-2016/2oc2/2oc2_pocket.pdb
REMARK  275 active torsions:
REMARK  status: ('A' for Active; 'I' for Inactive)
REMARK    1  A    between atoms: _1  and  _3
REMARK    2  A    between atoms: _3  and  _4
REMARK    3  A    between atoms: _3  and  _6
REMARK    4  A    between atoms: _6  and  _7
REMARK    5  A    between atoms: _12  and  _14
REMARK    6  A    between atoms: _14  and  _15
REMARK    7  A    between atoms: _14  and  _17
REMARK    8  A    between atoms: _17  and  _18
REMARK    9  A    between atoms: _23  and  _25
REMARK   10  A    between atoms: _25  and  _26
REMARK   11  A    between atoms: _25  and  _28
REMARK   12  A    between atoms: _28  and  _29
REMARK   13  A    between atoms: _29  and  _30
REMARK   14  A    between atoms: _33  and  _35
REMARK   15  A    between atoms: _35  and  _36
REMARK   16  A    between atoms: _35  and  _38
REMARK   17  A    between atoms: _38  and  _39
REMARK   18  A    between atoms: _44  and  _45
REMARK   19  A    between atoms: _47  and  _49
REMARK   20  A    between atoms: _49  and  _50
REMARK   21  A    between atoms: _49  and  _52
REMARK   22  A    between atoms: _52  and  _53
REMARK   23  A    between atoms: _53  and  _54
REMARK   24  A    between atoms: _57  and  _59
REMARK   25  A    between atoms: _59  and  _60
REMARK   26  A    between atoms: _59  and  _62
REMARK   27  A    between atoms: _62  and  _63
REMARK   28  A    between atoms: _68  and  _70
REMARK   29  A    between atoms: _70  and  _71
REMARK   30  A    between atoms: _70  and  _73
REMARK   31  A    between atoms: _73  and  _74
REMARK   32  A    between atoms: _84  and  _86
REMARK   33  A    between atoms: _86  and  _87
REMARK   34  A    between atoms: _86  and  _89
REMARK   35  A    between atoms: _89  and  _90
REMARK   36  A    between atoms: _90  and  _91
REMARK   37  A    between atoms: _96  and  _98
REMARK   38  A    between atoms: _98  and  _99
REMARK   39  A    between atoms: _98  and  _101
REMARK   40  A    between atoms: _101  and  _102
REMARK   41  A    between atoms: _105  and  _107
REMARK   42  A    between atoms: _107  and  _108
REMARK   43  A    between atoms: _107  and  _110
REMARK   44  A    between atoms: _113  and  _115
REMARK   45  A    between atoms: _115  and  _116
REMARK   46  A    between atoms: _115  and  _118
REMARK   47  A    between atoms: _118  and  _119
REMARK   48  A    between atoms: _119  and  _247
REMARK   49  A    between atoms: _120  and  _122
REMARK   50  A    between atoms: _122  and  _123
REMARK   51  A    between atoms: _122  and  _125
REMARK   52  A    between atoms: _125  and  _126
REMARK   53  A    between atoms: _131  and  _133
REMARK   54  A    between atoms: _133  and  _134
REMARK   55  A    between atoms: _137  and  _139
REMARK   56  A    between atoms: _139  and  _140
REMARK   57  A    between atoms: _139  and  _142
REMARK   58  A    between atoms: _142  and  _143
REMARK   59  A    between atoms: _145  and  _147
REMARK   60  A    between atoms: _147  and  _148
REMARK   61  A    between atoms: _151  and  _153
REMARK   62  A    between atoms: _153  and  _154
REMARK   63  A    between atoms: _153  and  _156
REMARK   64  A    between atoms: _156  and  _157
REMARK   65  A    between atoms: _167  and  _169
REMARK   66  A    between atoms: _169  and  _170
REMARK   67  A    between atoms: _169  and  _172
REMARK   68  A    between atoms: _172  and  _173
REMARK   69  A    between atoms: _176  and  _178
REMARK   70  A    between atoms: _178  and  _179
REMARK   71  A    between atoms: _178  and  _181
REMARK   72  A    between atoms: _181  and  _182
REMARK   73  A    between atoms: _187  and  _188
REMARK   74  A    between atoms: _190  and  _192
REMARK   75  A    between atoms: _192  and  _193
REMARK   76  A    between atoms: _192  and  _195
REMARK   77  A    between atoms: _195  and  _196
REMARK   78  A    between atoms: _196  and  _197
REMARK   79  A    between atoms: _197  and  _198
REMARK   80  A    between atoms: _207  and  _209
REMARK   81  A    between atoms: _209  and  _210
REMARK   82  A    between atoms: _209  and  _212
REMARK   83  A    between atoms: _212  and  _213
REMARK   84  A    between atoms: _216  and  _218
REMARK   85  A    between atoms: _218  and  _219
REMARK   86  A    between atoms: _218  and  _221
REMARK   87  A    between atoms: _221  and  _222
REMARK   88  A    between atoms: _222  and  _223
REMARK   89  A    between atoms: _223  and  _224
REMARK   90  A    between atoms: _224  and  _225
REMARK   91  A    between atoms: _229  and  _231
REMARK   92  A    between atoms: _231  and  _232
REMARK   93  A    between atoms: _231  and  _234
REMARK   94  A    between atoms: _234  and  _235
REMARK   95  A    between atoms: _235  and  _236
REMARK   96  A    between atoms: _241  and  _243
REMARK   97  A    between atoms: _243  and  _244
REMARK   98  A    between atoms: _243  and  _246
REMARK   99  A    between atoms: _246  and  _247
REMARK  100  A    between atoms: _248  and  _250
REMARK  101  A    between atoms: _250  and  _251
REMARK  102  A    between atoms: _250  and  _253
REMARK  103  A    between atoms: _253  and  _254
REMARK  104  A    between atoms: _254  and  _255
REMARK  105  A    between atoms: _258  and  _260
REMARK  106  A    between atoms: _260  and  _261
REMARK  107  A    between atoms: _260  and  _263
REMARK  108  A    between atoms: _263  and  _264
REMARK  109  A    between atoms: _267  and  _269
REMARK  110  A    between atoms: _269  and  _270
REMARK  111  A    between atoms: _269  and  _272
REMARK  112  A    between atoms: _275  and  _277
REMARK  113  A    between atoms: _277  and  _278
REMARK  114  A    between atoms: _277  and  _280
REMARK  115  A    between atoms: _283  and  _285
REMARK  116  A    between atoms: _285  and  _286
REMARK  117  A    between atoms: _289  and  _291
REMARK  118  A    between atoms: _291  and  _292
REMARK  119  A    between atoms: _291  and  _294
REMARK  120  A    between atoms: _294  and  _295
REMARK  121  A    between atoms: _300  and  _302
REMARK  122  A    between atoms: _313  and  _316
REMARK  123  A    between atoms: _316  and  _317
REMARK  124  A    between atoms: _317  and  _318
REMARK  125  A    between atoms: _323  and  _326
REMARK  126  A    between atoms: _326  and  _327
REMARK  127  A    between atoms: _327  and  _328
REMARK  128  A    between atoms: _337  and  _338
REMARK  129  A    between atoms: _346  and  _348
REMARK  130  A    between atoms: _348  and  _349
REMARK  131  A    between atoms: _348  and  _351
REMARK  132  A    between atoms: _351  and  _352
REMARK  133  A    between atoms: _355  and  _357
REMARK  134  A    between atoms: _357  and  _358
REMARK  135  A    between atoms: _357  and  _360
REMARK  136  A    between atoms: _360  and  _361
REMARK  137  A    between atoms: _366  and  _367
REMARK  138  A    between atoms: _369  and  _371
REMARK  139  A    between atoms: _371  and  _372
REMARK  140  A    between atoms: _371  and  _374
REMARK  141  A    between atoms: _374  and  _375
REMARK  142  A    between atoms: _381  and  _383
REMARK  143  A    between atoms: _383  and  _384
REMARK  144  A    between atoms: _383  and  _386
REMARK  145  A    between atoms: _386  and  _387
REMARK  146  A    between atoms: _392  and  _393
REMARK  147  A    between atoms: _395  and  _397
REMARK  148  A    between atoms: _397  and  _398
REMARK  149  A    between atoms: _397  and  _400
REMARK  150  A    between atoms: _400  and  _401
REMARK  151  A    between atoms: _401  and  _402
REMARK  152  A    between atoms: _402  and  _403
REMARK  153  A    between atoms: _412  and  _414
REMARK  154  A    between atoms: _414  and  _415
REMARK  155  A    between atoms: _414  and  _417
REMARK  156  A    between atoms: _417  and  _418
REMARK  157  A    between atoms: _418  and  _419
REMARK  158  A    between atoms: _422  and  _424
REMARK  159  A    between atoms: _424  and  _425
REMARK  160  A    between atoms: _427  and  _429
REMARK  161  A    between atoms: _429  and  _430
REMARK  162  A    between atoms: _429  and  _432
REMARK  163  A    between atoms: _432  and  _433
REMARK  164  A    between atoms: _439  and  _440
REMARK  165  A    between atoms: _445  and  _447
REMARK  166  A    between atoms: _447  and  _448
REMARK  167  A    between atoms: _447  and  _450
REMARK  168  A    between atoms: _450  and  _451
REMARK  169  A    between atoms: _457  and  _459
REMARK  170  A    between atoms: _459  and  _460
REMARK  171  A    between atoms: _459  and  _462
REMARK  172  A    between atoms: _462  and  _463
REMARK  173  A    between atoms: _468  and  _470
REMARK  174  A    between atoms: _470  and  _471
REMARK  175  A    between atoms: _470  and  _473
REMARK  176  A    between atoms: _473  and  _474
REMARK  177  A    between atoms: _474  and  _475
REMARK  178  A    between atoms: _475  and  _476
REMARK  179  A    between atoms: _476  and  ZN_722
REMARK  180  A    between atoms: _478  and  _480
REMARK  181  A    between atoms: _480  and  _481
REMARK  182  A    between atoms: _484  and  _486
REMARK  183  A    between atoms: _486  and  _487
REMARK  184  A    between atoms: _489  and  _491
REMARK  185  A    between atoms: _491  and  _492
REMARK  186  A    between atoms: _491  and  _494
REMARK  187  A    between atoms: _494  and  _495
REMARK  188  A    between atoms: _498  and  _500
REMARK  189  A    between atoms: _500  and  _501
REMARK  190  A    between atoms: _504  and  _506
REMARK  191  A    between atoms: _506  and  _507
REMARK  192  A    between atoms: _506  and  _509
REMARK  193  A    between atoms: _509  and  _510
REMARK  194  A    between atoms: _513  and  _515
REMARK  195  A    between atoms: _515  and  _516
REMARK  196  A    between atoms: _515  and  _518
REMARK  197  A    between atoms: _518  and  _519
REMARK  198  A    between atoms: _519  and  _520
REMARK  199  A    between atoms: _520  and  _521
REMARK  200  A    between atoms: _521  and  _522
REMARK  201  A    between atoms: _526  and  _528
REMARK  202  A    between atoms: _528  and  _529
REMARK  203  A    between atoms: _528  and  _531
REMARK  204  A    between atoms: _531  and  _532
REMARK  205  A    between atoms: _538  and  _540
REMARK  206  A    between atoms: _540  and  _541
REMARK  207  A    between atoms: _540  and  _543
REMARK  208  A    between atoms: _543  and  _544
REMARK  209  A    between atoms: _550  and  _552
REMARK  210  A    between atoms: _552  and  _553
REMARK  211  A    between atoms: _552  and  _555
REMARK  212  A    between atoms: _555  and  _556
REMARK  213  A    between atoms: _558  and  _560
REMARK  214  A    between atoms: _560  and  _561
REMARK  215  A    between atoms: _560  and  _563
REMARK  216  A    between atoms: _566  and  _568
REMARK  217  A    between atoms: _568  and  _569
REMARK  218  A    between atoms: _568  and  _571
REMARK  219  A    between atoms: _571  and  _572
REMARK  220  A    between atoms: _572  and  _573
REMARK  221  A    between atoms: _573  and  _574
REMARK  222  A    between atoms: _574  and  _575
REMARK  223  A    between atoms: _579  and  _581
REMARK  224  A    between atoms: _581  and  _582
REMARK  225  A    between atoms: _581  and  _584
REMARK  226  A    between atoms: _584  and  _585
REMARK  227  A    between atoms: _591  and  _593
REMARK  228  A    between atoms: _593  and  _594
REMARK  229  A    between atoms: _593  and  _596
REMARK  230  A    between atoms: _596  and  _597
REMARK  231  A    between atoms: _602  and  _604
REMARK  232  A    between atoms: _604  and  _605
REMARK  233  A    between atoms: _604  and  _607
REMARK  234  A    between atoms: _607  and  _608
REMARK  235  A    between atoms: _610  and  _612
REMARK  236  A    between atoms: _612  and  _613
REMARK  237  A    between atoms: _612  and  _615
REMARK  238  A    between atoms: _615  and  _616
REMARK  239  A    between atoms: _618  and  _620
REMARK  240  A    between atoms: _620  and  _621
REMARK  241  A    between atoms: _620  and  _623
REMARK  242  A    between atoms: _627  and  _628
REMARK  243  A    between atoms: _633  and  _635
REMARK  244  A    between atoms: _635  and  _636
REMARK  245  A    between atoms: _635  and  _638
REMARK  246  A    between atoms: _638  and  _639
REMARK  247  A    between atoms: _644  and  _645
REMARK  248  A    between atoms: _647  and  _649
REMARK  249  A    between atoms: _649  and  _650
REMARK  250  A    between atoms: _649  and  _652
REMARK  251  A    between atoms: _652  and  _653
REMARK  252  A    between atoms: _653  and  _654
REMARK  253  A    between atoms: _654  and  _655
REMARK  254  A    between atoms: _664  and  _666
REMARK  255  A    between atoms: _666  and  _667
REMARK  256  A    between atoms: _666  and  _669
REMARK  257  A    between atoms: _669  and  _670
REMARK  258  A    between atoms: _675  and  _676
REMARK  259  A    between atoms: _678  and  _680
REMARK  260  A    between atoms: _680  and  _681
REMARK  261  A    between atoms: _680  and  _683
REMARK  262  A    between atoms: _683  and  _684
REMARK  263  A    between atoms: _690  and  _692
REMARK  264  A    between atoms: _692  and  _693
REMARK  265  A    between atoms: _692  and  _695
REMARK  266  A    between atoms: _695  and  _696
REMARK  267  A    between atoms: _698  and  _700
REMARK  268  A    between atoms: _700  and  _701
REMARK  269  A    between atoms: _700  and  _703
REMARK  270  A    between atoms: _703  and  _704
REMARK  271  A    between atoms: _710  and  _712
REMARK  272  A    between atoms: _712  and  _713
REMARK  273  A    between atoms: _712  and  _715
REMARK  274  A    between atoms: _715  and  _716
REMARK  275  A    between atoms: _716  and  _717
REMARK                            x       y       z     vdW  Elec       q    Type
REMARK                         _______ _______ _______ _____ _____    ______ ____
ROOT
ATOM      1  O   HOH     1      41.968  47.005  49.897  0.00  0.00    +0.000 OA
ENDROOT
TORSDOF 0
REMARK  Name = ../refined-set-2016/2oc2/2oc2_pocket.pdb
REMARK  275 active torsions:
REMARK  status: ('A' for Active; 'I' for Inactive)
REMARK    1  A    between atoms: _1  and  _3
REMARK    2  A    between atoms: _3  and  _4
REMARK    3  A    between atoms: _3  and  _6
REMARK    4  A    between atoms: _6  and  _7
REMARK    5  A    between atoms: _12  and  _14
REMARK    6  A    between atoms: _14  and  _15
REMARK    7  A    between atoms: _14  and  _17
REMARK    8  A    between atoms: _17  and  _18
REMARK    9  A    between atoms: _23  and  _25
REMARK   10  A    between atoms: _25  and  _26
REMARK   11  A    between atoms: _25  and  _28
REMARK   12  A    between atoms: _28  and  _29
REMARK   13  A    between atoms: _29  and  _30
REMARK   14  A    between atoms: _33  and  _35
REMARK   15  A    between atoms: _35  and  _36
REMARK   16  A    between atoms: _35  and  _38
REMARK   17  A    between atoms: _38  and  _39
REMARK   18  A    between atoms: _44  and  _45
REMARK   19  A    between atoms: _47  and  _49
REMARK   20  A    between atoms: _49  and  _50
REMARK   21  A    between atoms: _49  and  _52
REMARK   22  A    between atoms: _52  and  _53
REMARK   23  A    between atoms: _53  and  _54
REMARK   24  A    between atoms: _57  and  _59
REMARK   25  A    between atoms: _59  and  _60
REMARK   26  A    between atoms: _59  and  _62
REMARK   27  A    between atoms: _62  and  _63
REMARK   28  A    between atoms: _68  and  _70
REMARK   29  A    between atoms: _70  and  _71
REMARK   30  A    between atoms: _70  and  _73
REMARK   31  A    between atoms: _73  and  _74
REMARK   32  A    between atoms: _84  and  _86
REMARK   33  A    between atoms: _86  and  _87
REMARK   34  A    between atoms: _86  and  _89
REMARK   35  A    between atoms: _89  and  _90
REMARK   36  A    between atoms: _90  and  _91
REMARK   37  A    between atoms: _96  and  _98
REMARK   38  A    between atoms: _98  and  _99
REMARK   39  A    between atoms: _98  and  _101
REMARK   40  A    between atoms: _101  and  _102
REMARK   41  A    between atoms: _105  and  _107
REMARK   42  A    between atoms: _107  and  _108
REMARK   43  A    between atoms: _107  and  _110
REMARK   44  A    between atoms: _113  and  _115
REMARK   45  A    between atoms: _115  and  _116
REMARK   46  A    between atoms: _115  and  _118
REMARK   47  A    between atoms: _118  and  _119
REMARK   48  A    between atoms: _119  and  _247
REMARK   49  A    between atoms: _120  and  _122
REMARK   50  A    between atoms: _122  and  _123
REMARK   51  A    between atoms: _122  and  _125
REMARK   52  A    between atoms: _125  and  _126
REMARK   53  A    between atoms: _131  and  _133
REMARK   54  A    between atoms: _133  and  _134
REMARK   55  A    between atoms: _137  and  _139
REMARK   56  A    between atoms: _139  and  _140
REMARK   57  A    between atoms: _139  and  _142
REMARK   58  A    between atoms: _142  and  _143
REMARK   59  A    between atoms: _145  and  _147
REMARK   60  A    between atoms: _147  and  _148
REMARK   61  A    between atoms: _151  and  _153
REMARK   62  A    between atoms: _153  and  _154
REMARK   63  A    between atoms: _153  and  _156
REMARK   64  A    between atoms: _156  and  _157
REMARK   65  A    between atoms: _167  and  _169
REMARK   66  A    between atoms: _169  and  _170
REMARK   67  A    between atoms: _169  and  _172
REMARK   68  A    between atoms: _172  and  _173
REMARK   69  A    between atoms: _176  and  _178
REMARK   70  A    between atoms: _178  and  _179
REMARK   71  A    between atoms: _178  and  _181
REMARK   72  A    between atoms: _181  and  _182
REMARK   73  A    between atoms: _187  and  _188
REMARK   74  A    between atoms: _190  and  _192
REMARK   75  A    between atoms: _192  and  _193
REMARK   76  A    between atoms: _192  and  _195
REMARK   77  A    between atoms: _195  and  _196
REMARK   78  A    between atoms: _196  and  _197
REMARK   79  A    between atoms: _197  and  _198
REMARK   80  A    between atoms: _207  and  _209
REMARK   81  A    between atoms: _209  and  _210
REMARK   82  A    between atoms: _209  and  _212
REMARK   83  A    between atoms: _212  and  _213
REMARK   84  A    between atoms: _216  and  _218
REMARK   85  A    between atoms: _218  and  _219
REMARK   86  A    between atoms: _218  and  _221
REMARK   87  A    between atoms: _221  and  _222
REMARK   88  A    between atoms: _222  and  _223
REMARK   89  A    between atoms: _223  and  _224
REMARK   90  A    between atoms: _224  and  _225
REMARK   91  A    between atoms: _229  and  _231
REMARK   92  A    between atoms: _231  and  _232
REMARK   93  A    between atoms: _231  and  _234
REMARK   94  A    between atoms: _234  and  _235
REMARK   95  A    between atoms: _235  and  _236
REMARK   96  A    between atoms: _241  and  _243
REMARK   97  A    between atoms: _243  and  _244
REMARK   98  A    between atoms: _243  and  _246
REMARK   99  A    between atoms: _246  and  _247
REMARK  100  A    between atoms: _248  and  _250
REMARK  101  A    between atoms: _250  and  _251
REMARK  102  A    between atoms: _250  and  _253
REMARK  103  A    between atoms: _253  and  _254
REMARK  104  A    between atoms: _254  and  _255
REMARK  105  A    between atoms: _258  and  _260
REMARK  106  A    between atoms: _260  and  _261
REMARK  107  A    between atoms: _260  and  _263
REMARK  108  A    between atoms: _263  and  _264
REMARK  109  A    between atoms: _267  and  _269
REMARK  110  A    between atoms: _269  and  _270
REMARK  111  A    between atoms: _269  and  _272
REMARK  112  A    between atoms: _275  and  _277
REMARK  113  A    between atoms: _277  and  _278
REMARK  114  A    between atoms: _277  and  _280
REMARK  115  A    between atoms: _283  and  _285
REMARK  116  A    between atoms: _285  and  _286
REMARK  117  A    between atoms: _289  and  _291
REMARK  118  A    between atoms: _291  and  _292
REMARK  119  A    between atoms: _291  and  _294
REMARK  120  A    between atoms: _294  and  _295
REMARK  121  A    between atoms: _300  and  _302
REMARK  122  A    between atoms: _313  and  _316
REMARK  123  A    between atoms: _316  and  _317
REMARK  124  A    between atoms: _317  and  _318
REMARK  125  A    between atoms: _323  and  _326
REMARK  126  A    between atoms: _326  and  _327
REMARK  127  A    between atoms: _327  and  _328
REMARK  128  A    between atoms: _337  and  _338
REMARK  129  A    between atoms: _346  and  _348
REMARK  130  A    between atoms: _348  and  _349
REMARK  131  A    between atoms: _348  and  _351
REMARK  132  A    between atoms: _351  and  _352
REMARK  133  A    between atoms: _355  and  _357
REMARK  134  A    between atoms: _357  and  _358
REMARK  135  A    between atoms: _357  and  _360
REMARK  136  A    between atoms: _360  and  _361
REMARK  137  A    between atoms: _366  and  _367
REMARK  138  A    between atoms: _369  and  _371
REMARK  139  A    between atoms: _371  and  _372
REMARK  140  A    between atoms: _371  and  _374
REMARK  141  A    between atoms: _374  and  _375
REMARK  142  A    between atoms: _381  and  _383
REMARK  143  A    between atoms: _383  and  _384
REMARK  144  A    between atoms: _383  and  _386
REMARK  145  A    between atoms: _386  and  _387
REMARK  146  A    between atoms: _392  and  _393
REMARK  147  A    between atoms: _395  and  _397
REMARK  148  A    between atoms: _397  and  _398
REMARK  149  A    between atoms: _397  and  _400
REMARK  150  A    between atoms: _400  and  _401
REMARK  151  A    between atoms: _401  and  _402
REMARK  152  A    between atoms: _402  and  _403
REMARK  153  A    between atoms: _412  and  _414
REMARK  154  A    between atoms: _414  and  _415
REMARK  155  A    between atoms: _414  and  _417
REMARK  156  A    between atoms: _417  and  _418
REMARK  157  A    between atoms: _418  and  _419
REMARK  158  A    between atoms: _422  and  _424
REMARK  159  A    between atoms: _424  and  _425
REMARK  160  A    between atoms: _427  and  _429
REMARK  161  A    between atoms: _429  and  _430
REMARK  162  A    between atoms: _429  and  _432
REMARK  163  A    between atoms: _432  and  _433
REMARK  164  A    between atoms: _439  and  _440
REMARK  165  A    between atoms: _445  and  _447
REMARK  166  A    between atoms: _447  and  _448
REMARK  167  A    between atoms: _447  and  _450
REMARK  168  A    between atoms: _450  and  _451
REMARK  169  A    between atoms: _457  and  _459
REMARK  170  A    between atoms: _459  and  _460
REMARK  171  A    between atoms: _459  and  _462
REMARK  172  A    between atoms: _462  and  _463
REMARK  173  A    between atoms: _468  and  _470
REMARK  174  A    between atoms: _470  and  _471
REMARK  175  A    between atoms: _470  and  _473
REMARK  176  A    between atoms: _473  and  _474
REMARK  177  A    between atoms: _474  and  _475
REMARK  178  A    between atoms: _475  and  _476
REMARK  179  A    between atoms: _476  and  ZN_722
REMARK  180  A    between atoms: _478  and  _480
REMARK  181  A    between atoms: _480  and  _481
REMARK  182  A    between atoms: _484  and  _486
REMARK  183  A    between atoms: _486  and  _487
REMARK  184  A    between atoms: _489  and  _491
REMARK  185  A    between atoms: _491  and  _492
REMARK  186  A    between atoms: _491  and  _494
REMARK  187  A    between atoms: _494  and  _495
REMARK  188  A    between atoms: _498  and  _500
REMARK  189  A    between atoms: _500  and  _501
REMARK  190  A    between atoms: _504  and  _506
REMARK  191  A    between atoms: _506  and  _507
REMARK  192  A    between atoms: _506  and  _509
REMARK  193  A    between atoms: _509  and  _510
REMARK  194  A    between atoms: _513  and  _515
REMARK  195  A    between atoms: _515  and  _516
REMARK  196  A    between atoms: _515  and  _518
REMARK  197  A    between atoms: _518  and  _519
REMARK  198  A    between atoms: _519  and  _520
REMARK  199  A    between atoms: _520  and  _521
REMARK  200  A    between atoms: _521  and  _522
REMARK  201  A    between atoms: _526  and  _528
REMARK  202  A    between atoms: _528  and  _529
REMARK  203  A    between atoms: _528  and  _531
REMARK  204  A    between atoms: _531  and  _532
REMARK  205  A    between atoms: _538  and  _540
REMARK  206  A    between atoms: _540  and  _541
REMARK  207  A    between atoms: _540  and  _543
REMARK  208  A    between atoms: _543  and  _544
REMARK  209  A    between atoms: _550  and  _552
REMARK  210  A    between atoms: _552  and  _553
REMARK  211  A    between atoms: _552  and  _555
REMARK  212  A    between atoms: _555  and  _556
REMARK  213  A    between atoms: _558  and  _560
REMARK  214  A    between atoms: _560  and  _561
REMARK  215  A    between atoms: _560  and  _563
REMARK  216  A    between atoms: _566  and  _568
REMARK  217  A    between atoms: _568  and  _569
REMARK  218  A    between atoms: _568  and  _571
REMARK  219  A    between atoms: _571  and  _572
REMARK  220  A    between atoms: _572  and  _573
REMARK  221  A    between atoms: _573  and  _574
REMARK  222  A    between atoms: _574  and  _575
REMARK  223  A    between atoms: _579  and  _581
REMARK  224  A    between atoms: _581  and  _582
REMARK  225  A    between atoms: _581  and  _584
REMARK  226  A    between atoms: _584  and  _585
REMARK  227  A    between atoms: _591  and  _593
REMARK  228  A    between atoms: _593  and  _594
REMARK  229  A    between atoms: _593  and  _596
REMARK  230  A    between atoms: _596  and  _597
REMARK  231  A    between atoms: _602  and  _604
REMARK  232  A    between atoms: _604  and  _605
REMARK  233  A    between atoms: _604  and  _607
REMARK  234  A    between atoms: _607  and  _608
REMARK  235  A    between atoms: _610  and  _612
REMARK  236  A    between atoms: _612  and  _613
REMARK  237  A    between atoms: _612  and  _615
REMARK  238  A    between atoms: _615  and  _616
REMARK  239  A    between atoms: _618  and  _620
REMARK  240  A    between atoms: _620  and  _621
REMARK  241  A    between atoms: _620  and  _623
REMARK  242  A    between atoms: _627  and  _628
REMARK  243  A    between atoms: _633  and  _635
REMARK  244  A    between atoms: _635  and  _636
REMARK  245  A    between atoms: _635  and  _638
REMARK  246  A    between atoms: _638  and  _639
REMARK  247  A    between atoms: _644  and  _645
REMARK  248  A    between atoms: _647  and  _649
REMARK  249  A    between atoms: _649  and  _650
REMARK  250  A    between atoms: _649  and  _652
REMARK  251  A    between atoms: _652  and  _653
REMARK  252  A    between atoms: _653  and  _654
REMARK  253  A    between atoms: _654  and  _655
REMARK  254  A    between atoms: _664  and  _666
REMARK  255  A    between atoms: _666  and  _667
REMARK  256  A    between atoms: _666  and  _669
REMARK  257  A    between atoms: _669  and  _670
REMARK  258  A    between atoms: _675  and  _676
REMARK  259  A    between atoms: _678  and  _680
REMARK  260  A    between atoms: _680  and  _681
REMARK  261  A    between atoms: _680  and  _683
REMARK  262  A    between atoms: _683  and  _684
REMARK  263  A    between atoms: _690  and  _692
REMARK  264  A    between atoms: _692  and  _693
REMARK  265  A    between atoms: _692  and  _695
REMARK  266  A    between atoms: _695  and  _696
REMARK  267  A    between atoms: _698  and  _700
REMARK  268  A    between atoms: _700  and  _701
REMARK  269  A    between atoms: _700  and  _703
REMARK  270  A    between atoms: _703  and  _704
REMARK  271  A    between atoms: _710  and  _712
REMARK  272  A    between atoms: _712  and  _713
REMARK  273  A    between atoms: _712  and  _715
REMARK  274  A    between atoms: _715  and  _716
REMARK  275  A    between atoms: _716  and  _717
REMARK                            x       y       z     vdW  Elec       q    Type
REMARK                         _______ _______ _______ _____ _____    ______ ____
ROOT
ATOM      1  O   HOH     1      38.960  29.759  42.240  0.00  0.00    +0.000 OA
ENDROOT
TORSDOF 0
REMARK  Name = ../refined-set-2016/2oc2/2oc2_pocket.pdb
REMARK  275 active torsions:
REMARK  status: ('A' for Active; 'I' for Inactive)
REMARK    1  A    between atoms: _1  and  _3
REMARK    2  A    between atoms: _3  and  _4
REMARK    3  A    between atoms: _3  and  _6
REMARK    4  A    between atoms: _6  and  _7
REMARK    5  A    between atoms: _12  and  _14
REMARK    6  A    between atoms: _14  and  _15
REMARK    7  A    between atoms: _14  and  _17
REMARK    8  A    between atoms: _17  and  _18
REMARK    9  A    between atoms: _23  and  _25
REMARK   10  A    between atoms: _25  and  _26
REMARK   11  A    between atoms: _25  and  _28
REMARK   12  A    between atoms: _28  and  _29
REMARK   13  A    between atoms: _29  and  _30
REMARK   14  A    between atoms: _33  and  _35
REMARK   15  A    between atoms: _35  and  _36
REMARK   16  A    between atoms: _35  and  _38
REMARK   17  A    between atoms: _38  and  _39
REMARK   18  A    between atoms: _44  and  _45
REMARK   19  A    between atoms: _47  and  _49
REMARK   20  A    between atoms: _49  and  _50
REMARK   21  A    between atoms: _49  and  _52
REMARK   22  A    between atoms: _52  and  _53
REMARK   23  A    between atoms: _53  and  _54
REMARK   24  A    between atoms: _57  and  _59
REMARK   25  A    between atoms: _59  and  _60
REMARK   26  A    between atoms: _59  and  _62
REMARK   27  A    between atoms: _62  and  _63
REMARK   28  A    between atoms: _68  and  _70
REMARK   29  A    between atoms: _70  and  _71
REMARK   30  A    between atoms: _70  and  _73
REMARK   31  A    between atoms: _73  and  _74
REMARK   32  A    between atoms: _84  and  _86
REMARK   33  A    between atoms: _86  and  _87
REMARK   34  A    between atoms: _86  and  _89
REMARK   35  A    between atoms: _89  and  _90
REMARK   36  A    between atoms: _90  and  _91
REMARK   37  A    between atoms: _96  and  _98
REMARK   38  A    between atoms: _98  and  _99
REMARK   39  A    between atoms: _98  and  _101
REMARK   40  A    between atoms: _101  and  _102
REMARK   41  A    between atoms: _105  and  _107
REMARK   42  A    between atoms: _107  and  _108
REMARK   43  A    between atoms: _107  and  _110
REMARK   44  A    between atoms: _113  and  _115
REMARK   45  A    between atoms: _115  and  _116
REMARK   46  A    between atoms: _115  and  _118
REMARK   47  A    between atoms: _118  and  _119
REMARK   48  A    between atoms: _119  and  _247
REMARK   49  A    between atoms: _120  and  _122
REMARK   50  A    between atoms: _122  and  _123
REMARK   51  A    between atoms: _122  and  _125
REMARK   52  A    between atoms: _125  and  _126
REMARK   53  A    between atoms: _131  and  _133
REMARK   54  A    between atoms: _133  and  _134
REMARK   55  A    between atoms: _137  and  _139
REMARK   56  A    between atoms: _139  and  _140
REMARK   57  A    between atoms: _139  and  _142
REMARK   58  A    between atoms: _142  and  _143
REMARK   59  A    between atoms: _145  and  _147
REMARK   60  A    between atoms: _147  and  _148
REMARK   61  A    between atoms: _151  and  _153
REMARK   62  A    between atoms: _153  and  _154
REMARK   63  A    between atoms: _153  and  _156
REMARK   64  A    between atoms: _156  and  _157
REMARK   65  A    between atoms: _167  and  _169
REMARK   66  A    between atoms: _169  and  _170
REMARK   67  A    between atoms: _169  and  _172
REMARK   68  A    between atoms: _172  and  _173
REMARK   69  A    between atoms: _176  and  _178
REMARK   70  A    between atoms: _178  and  _179
REMARK   71  A    between atoms: _178  and  _181
REMARK   72  A    between atoms: _181  and  _182
REMARK   73  A    between atoms: _187  and  _188
REMARK   74  A    between atoms: _190  and  _192
REMARK   75  A    between atoms: _192  and  _193
REMARK   76  A    between atoms: _192  and  _195
REMARK   77  A    between atoms: _195  and  _196
REMARK   78  A    between atoms: _196  and  _197
REMARK   79  A    between atoms: _197  and  _198
REMARK   80  A    between atoms: _207  and  _209
REMARK   81  A    between atoms: _209  and  _210
REMARK   82  A    between atoms: _209  and  _212
REMARK   83  A    between atoms: _212  and  _213
REMARK   84  A    between atoms: _216  and  _218
REMARK   85  A    between atoms: _218  and  _219
REMARK   86  A    between atoms: _218  and  _221
REMARK   87  A    between atoms: _221  and  _222
REMARK   88  A    between atoms: _222  and  _223
REMARK   89  A    between atoms: _223  and  _224
REMARK   90  A    between atoms: _224  and  _225
REMARK   91  A    between atoms: _229  and  _231
REMARK   92  A    between atoms: _231  and  _232
REMARK   93  A    between atoms: _231  and  _234
REMARK   94  A    between atoms: _234  and  _235
REMARK   95  A    between atoms: _235  and  _236
REMARK   96  A    between atoms: _241  and  _243
REMARK   97  A    between atoms: _243  and  _244
REMARK   98  A    between atoms: _243  and  _246
REMARK   99  A    between atoms: _246  and  _247
REMARK  100  A    between atoms: _248  and  _250
REMARK  101  A    between atoms: _250  and  _251
REMARK  102  A    between atoms: _250  and  _253
REMARK  103  A    between atoms: _253  and  _254
REMARK  104  A    between atoms: _254  and  _255
REMARK  105  A    between atoms: _258  and  _260
REMARK  106  A    between atoms: _260  and  _261
REMARK  107  A    between atoms: _260  and  _263
REMARK  108  A    between atoms: _263  and  _264
REMARK  109  A    between atoms: _267  and  _269
REMARK  110  A    between atoms: _269  and  _270
REMARK  111  A    between atoms: _269  and  _272
REMARK  112  A    between atoms: _275  and  _277
REMARK  113  A    between atoms: _277  and  _278
REMARK  114  A    between atoms: _277  and  _280
REMARK  115  A    between atoms: _283  and  _285
REMARK  116  A    between atoms: _285  and  _286
REMARK  117  A    between atoms: _289  and  _291
REMARK  118  A    between atoms: _291  and  _292
REMARK  119  A    between atoms: _291  and  _294
REMARK  120  A    between atoms: _294  and  _295
REMARK  121  A    between atoms: _300  and  _302
REMARK  122  A    between atoms: _313  and  _316
REMARK  123  A    between atoms: _316  and  _317
REMARK  124  A    between atoms: _317  and  _318
REMARK  125  A    between atoms: _323  and  _326
REMARK  126  A    between atoms: _326  and  _327
REMARK  127  A    between atoms: _327  and  _328
REMARK  128  A    between atoms: _337  and  _338
REMARK  129  A    between atoms: _346  and  _348
REMARK  130  A    between atoms: _348  and  _349
REMARK  131  A    between atoms: _348  and  _351
REMARK  132  A    between atoms: _351  and  _352
REMARK  133  A    between atoms: _355  and  _357
REMARK  134  A    between atoms: _357  and  _358
REMARK  135  A    between atoms: _357  and  _360
REMARK  136  A    between atoms: _360  and  _361
REMARK  137  A    between atoms: _366  and  _367
REMARK  138  A    between atoms: _369  and  _371
REMARK  139  A    between atoms: _371  and  _372
REMARK  140  A    between atoms: _371  and  _374
REMARK  141  A    between atoms: _374  and  _375
REMARK  142  A    between atoms: _381  and  _383
REMARK  143  A    between atoms: _383  and  _384
REMARK  144  A    between atoms: _383  and  _386
REMARK  145  A    between atoms: _386  and  _387
REMARK  146  A    between atoms: _392  and  _393
REMARK  147  A    between atoms: _395  and  _397
REMARK  148  A    between atoms: _397  and  _398
REMARK  149  A    between atoms: _397  and  _400
REMARK  150  A    between atoms: _400  and  _401
REMARK  151  A    between atoms: _401  and  _402
REMARK  152  A    between atoms: _402  and  _403
REMARK  153  A    between atoms: _412  and  _414
REMARK  154  A    between atoms: _414  and  _415
REMARK  155  A    between atoms: _414  and  _417
REMARK  156  A    between atoms: _417  and  _418
REMARK  157  A    between atoms: _418  and  _419
REMARK  158  A    between atoms: _422  and  _424
REMARK  159  A    between atoms: _424  and  _425
REMARK  160  A    between atoms: _427  and  _429
REMARK  161  A    between atoms: _429  and  _430
REMARK  162  A    between atoms: _429  and  _432
REMARK  163  A    between atoms: _432  and  _433
REMARK  164  A    between atoms: _439  and  _440
REMARK  165  A    between atoms: _445  and  _447
REMARK  166  A    between atoms: _447  and  _448
REMARK  167  A    between atoms: _447  and  _450
REMARK  168  A    between atoms: _450  and  _451
REMARK  169  A    between atoms: _457  and  _459
REMARK  170  A    between atoms: _459  and  _460
REMARK  171  A    between atoms: _459  and  _462
REMARK  172  A    between atoms: _462  and  _463
REMARK  173  A    between atoms: _468  and  _470
REMARK  174  A    between atoms: _470  and  _471
REMARK  175  A    between atoms: _470  and  _473
REMARK  176  A    between atoms: _473  and  _474
REMARK  177  A    between atoms: _474  and  _475
REMARK  178  A    between atoms: _475  and  _476
REMARK  179  A    between atoms: _476  and  ZN_722
REMARK  180  A    between atoms: _478  and  _480
REMARK  181  A    between atoms: _480  and  _481
REMARK  182  A    between atoms: _484  and  _486
REMARK  183  A    between atoms: _486  and  _487
REMARK  184  A    between atoms: _489  and  _491
REMARK  185  A    between atoms: _491  and  _492
REMARK  186  A    between atoms: _491  and  _494
REMARK  187  A    between atoms: _494  and  _495
REMARK  188  A    between atoms: _498  and  _500
REMARK  189  A    between atoms: _500  and  _501
REMARK  190  A    between atoms: _504  and  _506
REMARK  191  A    between atoms: _506  and  _507
REMARK  192  A    between atoms: _506  and  _509
REMARK  193  A    between atoms: _509  and  _510
REMARK  194  A    between atoms: _513  and  _515
REMARK  195  A    between atoms: _515  and  _516
REMARK  196  A    between atoms: _515  and  _518
REMARK  197  A    between atoms: _518  and  _519
REMARK  198  A    between atoms: _519  and  _520
REMARK  199  A    between atoms: _520  and  _521
REMARK  200  A    between atoms: _521  and  _522
REMARK  201  A    between atoms: _526  and  _528
REMARK  202  A    between atoms: _528  and  _529
REMARK  203  A    between atoms: _528  and  _531
REMARK  204  A    between atoms: _531  and  _532
REMARK  205  A    between atoms: _538  and  _540
REMARK  206  A    between atoms: _540  and  _541
REMARK  207  A    between atoms: _540  and  _543
REMARK  208  A    between atoms: _543  and  _544
REMARK  209  A    between atoms: _550  and  _552
REMARK  210  A    between atoms: _552  and  _553
REMARK  211  A    between atoms: _552  and  _555
REMARK  212  A    between atoms: _555  and  _556
REMARK  213  A    between atoms: _558  and  _560
REMARK  214  A    between atoms: _560  and  _561
REMARK  215  A    between atoms: _560  and  _563
REMARK  216  A    between atoms: _566  and  _568
REMARK  217  A    between atoms: _568  and  _569
REMARK  218  A    between atoms: _568  and  _571
REMARK  219  A    between atoms: _571  and  _572
REMARK  220  A    between atoms: _572  and  _573
REMARK  221  A    between atoms: _573  and  _574
REMARK  222  A    between atoms: _574  and  _575
REMARK  223  A    between atoms: _579  and  _581
REMARK  224  A    between atoms: _581  and  _582
REMARK  225  A    between atoms: _581  and  _584
REMARK  226  A    between atoms: _584  and  _585
REMARK  227  A    between atoms: _591  and  _593
REMARK  228  A    between atoms: _593  and  _594
REMARK  229  A    between atoms: _593  and  _596
REMARK  230  A    between atoms: _596  and  _597
REMARK  231  A    between atoms: _602  and  _604
REMARK  232  A    between atoms: _604  and  _605
REMARK  233  A    between atoms: _604  and  _607
REMARK  234  A    between atoms: _607  and  _608
REMARK  235  A    between atoms: _610  and  _612
REMARK  236  A    between atoms: _612  and  _613
REMARK  237  A    between atoms: _612  and  _615
REMARK  238  A    between atoms: _615  and  _616
REMARK  239  A    between atoms: _618  and  _620
REMARK  240  A    between atoms: _620  and  _621
REMARK  241  A    between atoms: _620  and  _623
REMARK  242  A    between atoms: _627  and  _628
REMARK  243  A    between atoms: _633  and  _635
REMARK  244  A    between atoms: _635  and  _636
REMARK  245  A    between atoms: _635  and  _638
REMARK  246  A    between atoms: _638  and  _639
REMARK  247  A    between atoms: _644  and  _645
REMARK  248  A    between atoms: _647  and  _649
REMARK  249  A    between atoms: _649  and  _650
REMARK  250  A    between atoms: _649  and  _652
REMARK  251  A    between atoms: _652  and  _653
REMARK  252  A    between atoms: _653  and  _654
REMARK  253  A    between atoms: _654  and  _655
REMARK  254  A    between atoms: _664  and  _666
REMARK  255  A    between atoms: _666  and  _667
REMARK  256  A    between atoms: _666  and  _669
REMARK  257  A    between atoms: _669  and  _670
REMARK  258  A    between atoms: _675  and  _676
REMARK  259  A    between atoms: _678  and  _680
REMARK  260  A    between atoms: _680  and  _681
REMARK  261  A    between atoms: _680  and  _683
REMARK  262  A    between atoms: _683  and  _684
REMARK  263  A    between atoms: _690  and  _692
REMARK  264  A    between atoms: _692  and  _693
REMARK  265  A    between atoms: _692  and  _695
REMARK  266  A    between atoms: _695  and  _696
REMARK  267  A    between atoms: _698  and  _700
REMARK  268  A    between atoms: _700  and  _701
REMARK  269  A    between atoms: _700  and  _703
REMARK  270  A    between atoms: _703  and  _704
REMARK  271  A    between atoms: _710  and  _712
REMARK  272  A    between atoms: _712  and  _713
REMARK  273  A    between atoms: _712  and  _715
REMARK  274  A    between atoms: _715  and  _716
REMARK  275  A    between atoms: _716  and  _717
REMARK                            x       y       z     vdW  Elec       q    Type
REMARK                         _______ _______ _______ _____ _____    ______ ____
ROOT
ATOM      1  O   HOH     1      39.970  44.809  49.482  0.00  0.00    +0.000 OA
ENDROOT
TORSDOF 0
REMARK  Name = ../refined-set-2016/2oc2/2oc2_pocket.pdb
REMARK  275 active torsions:
REMARK  status: ('A' for Active; 'I' for Inactive)
REMARK    1  A    between atoms: _1  and  _3
REMARK    2  A    between atoms: _3  and  _4
REMARK    3  A    between atoms: _3  and  _6
REMARK    4  A    between atoms: _6  and  _7
REMARK    5  A    between atoms: _12  and  _14
REMARK    6  A    between atoms: _14  and  _15
REMARK    7  A    between atoms: _14  and  _17
REMARK    8  A    between atoms: _17  and  _18
REMARK    9  A    between atoms: _23  and  _25
REMARK   10  A    between atoms: _25  and  _26
REMARK   11  A    between atoms: _25  and  _28
REMARK   12  A    between atoms: _28  and  _29
REMARK   13  A    between atoms: _29  and  _30
REMARK   14  A    between atoms: _33  and  _35
REMARK   15  A    between atoms: _35  and  _36
REMARK   16  A    between atoms: _35  and  _38
REMARK   17  A    between atoms: _38  and  _39
REMARK   18  A    between atoms: _44  and  _45
REMARK   19  A    between atoms: _47  and  _49
REMARK   20  A    between atoms: _49  and  _50
REMARK   21  A    between atoms: _49  and  _52
REMARK   22  A    between atoms: _52  and  _53
REMARK   23  A    between atoms: _53  and  _54
REMARK   24  A    between atoms: _57  and  _59
REMARK   25  A    between atoms: _59  and  _60
REMARK   26  A    between atoms: _59  and  _62
REMARK   27  A    between atoms: _62  and  _63
REMARK   28  A    between atoms: _68  and  _70
REMARK   29  A    between atoms: _70  and  _71
REMARK   30  A    between atoms: _70  and  _73
REMARK   31  A    between atoms: _73  and  _74
REMARK   32  A    between atoms: _84  and  _86
REMARK   33  A    between atoms: _86  and  _87
REMARK   34  A    between atoms: _86  and  _89
REMARK   35  A    between atoms: _89  and  _90
REMARK   36  A    between atoms: _90  and  _91
REMARK   37  A    between atoms: _96  and  _98
REMARK   38  A    between atoms: _98  and  _99
REMARK   39  A    between atoms: _98  and  _101
REMARK   40  A    between atoms: _101  and  _102
REMARK   41  A    between atoms: _105  and  _107
REMARK   42  A    between atoms: _107  and  _108
REMARK   43  A    between atoms: _107  and  _110
REMARK   44  A    between atoms: _113  and  _115
REMARK   45  A    between atoms: _115  and  _116
REMARK   46  A    between atoms: _115  and  _118
REMARK   47  A    between atoms: _118  and  _119
REMARK   48  A    between atoms: _119  and  _247
REMARK   49  A    between atoms: _120  and  _122
REMARK   50  A    between atoms: _122  and  _123
REMARK   51  A    between atoms: _122  and  _125
REMARK   52  A    between atoms: _125  and  _126
REMARK   53  A    between atoms: _131  and  _133
REMARK   54  A    between atoms: _133  and  _134
REMARK   55  A    between atoms: _137  and  _139
REMARK   56  A    between atoms: _139  and  _140
REMARK   57  A    between atoms: _139  and  _142
REMARK   58  A    between atoms: _142  and  _143
REMARK   59  A    between atoms: _145  and  _147
REMARK   60  A    between atoms: _147  and  _148
REMARK   61  A    between atoms: _151  and  _153
REMARK   62  A    between atoms: _153  and  _154
REMARK   63  A    between atoms: _153  and  _156
REMARK   64  A    between atoms: _156  and  _157
REMARK   65  A    between atoms: _167  and  _169
REMARK   66  A    between atoms: _169  and  _170
REMARK   67  A    between atoms: _169  and  _172
REMARK   68  A    between atoms: _172  and  _173
REMARK   69  A    between atoms: _176  and  _178
REMARK   70  A    between atoms: _178  and  _179
REMARK   71  A    between atoms: _178  and  _181
REMARK   72  A    between atoms: _181  and  _182
REMARK   73  A    between atoms: _187  and  _188
REMARK   74  A    between atoms: _190  and  _192
REMARK   75  A    between atoms: _192  and  _193
REMARK   76  A    between atoms: _192  and  _195
REMARK   77  A    between atoms: _195  and  _196
REMARK   78  A    between atoms: _196  and  _197
REMARK   79  A    between atoms: _197  and  _198
REMARK   80  A    between atoms: _207  and  _209
REMARK   81  A    between atoms: _209  and  _210
REMARK   82  A    between atoms: _209  and  _212
REMARK   83  A    between atoms: _212  and  _213
REMARK   84  A    between atoms: _216  and  _218
REMARK   85  A    between atoms: _218  and  _219
REMARK   86  A    between atoms: _218  and  _221
REMARK   87  A    between atoms: _221  and  _222
REMARK   88  A    between atoms: _222  and  _223
REMARK   89  A    between atoms: _223  and  _224
REMARK   90  A    between atoms: _224  and  _225
REMARK   91  A    between atoms: _229  and  _231
REMARK   92  A    between atoms: _231  and  _232
REMARK   93  A    between atoms: _231  and  _234
REMARK   94  A    between atoms: _234  and  _235
REMARK   95  A    between atoms: _235  and  _236
REMARK   96  A    between atoms: _241  and  _243
REMARK   97  A    between atoms: _243  and  _244
REMARK   98  A    between atoms: _243  and  _246
REMARK   99  A    between atoms: _246  and  _247
REMARK  100  A    between atoms: _248  and  _250
REMARK  101  A    between atoms: _250  and  _251
REMARK  102  A    between atoms: _250  and  _253
REMARK  103  A    between atoms: _253  and  _254
REMARK  104  A    between atoms: _254  and  _255
REMARK  105  A    between atoms: _258  and  _260
REMARK  106  A    between atoms: _260  and  _261
REMARK  107  A    between atoms: _260  and  _263
REMARK  108  A    between atoms: _263  and  _264
REMARK  109  A    between atoms: _267  and  _269
REMARK  110  A    between atoms: _269  and  _270
REMARK  111  A    between atoms: _269  and  _272
REMARK  112  A    between atoms: _275  and  _277
REMARK  113  A    between atoms: _277  and  _278
REMARK  114  A    between atoms: _277  and  _280
REMARK  115  A    between atoms: _283  and  _285
REMARK  116  A    between atoms: _285  and  _286
REMARK  117  A    between atoms: _289  and  _291
REMARK  118  A    between atoms: _291  and  _292
REMARK  119  A    between atoms: _291  and  _294
REMARK  120  A    between atoms: _294  and  _295
REMARK  121  A    between atoms: _300  and  _302
REMARK  122  A    between atoms: _313  and  _316
REMARK  123  A    between atoms: _316  and  _317
REMARK  124  A    between atoms: _317  and  _318
REMARK  125  A    between atoms: _323  and  _326
REMARK  126  A    between atoms: _326  and  _327
REMARK  127  A    between atoms: _327  and  _328
REMARK  128  A    between atoms: _337  and  _338
REMARK  129  A    between atoms: _346  and  _348
REMARK  130  A    between atoms: _348  and  _349
REMARK  131  A    between atoms: _348  and  _351
REMARK  132  A    between atoms: _351  and  _352
REMARK  133  A    between atoms: _355  and  _357
REMARK  134  A    between atoms: _357  and  _358
REMARK  135  A    between atoms: _357  and  _360
REMARK  136  A    between atoms: _360  and  _361
REMARK  137  A    between atoms: _366  and  _367
REMARK  138  A    between atoms: _369  and  _371
REMARK  139  A    between atoms: _371  and  _372
REMARK  140  A    between atoms: _371  and  _374
REMARK  141  A    between atoms: _374  and  _375
REMARK  142  A    between atoms: _381  and  _383
REMARK  143  A    between atoms: _383  and  _384
REMARK  144  A    between atoms: _383  and  _386
REMARK  145  A    between atoms: _386  and  _387
REMARK  146  A    between atoms: _392  and  _393
REMARK  147  A    between atoms: _395  and  _397
REMARK  148  A    between atoms: _397  and  _398
REMARK  149  A    between atoms: _397  and  _400
REMARK  150  A    between atoms: _400  and  _401
REMARK  151  A    between atoms: _401  and  _402
REMARK  152  A    between atoms: _402  and  _403
REMARK  153  A    between atoms: _412  and  _414
REMARK  154  A    between atoms: _414  and  _415
REMARK  155  A    between atoms: _414  and  _417
REMARK  156  A    between atoms: _417  and  _418
REMARK  157  A    between atoms: _418  and  _419
REMARK  158  A    between atoms: _422  and  _424
REMARK  159  A    between atoms: _424  and  _425
REMARK  160  A    between atoms: _427  and  _429
REMARK  161  A    between atoms: _429  and  _430
REMARK  162  A    between atoms: _429  and  _432
REMARK  163  A    between atoms: _432  and  _433
REMARK  164  A    between atoms: _439  and  _440
REMARK  165  A    between atoms: _445  and  _447
REMARK  166  A    between atoms: _447  and  _448
REMARK  167  A    between atoms: _447  and  _450
REMARK  168  A    between atoms: _450  and  _451
REMARK  169  A    between atoms: _457  and  _459
REMARK  170  A    between atoms: _459  and  _460
REMARK  171  A    between atoms: _459  and  _462
REMARK  172  A    between atoms: _462  and  _463
REMARK  173  A    between atoms: _468  and  _470
REMARK  174  A    between atoms: _470  and  _471
REMARK  175  A    between atoms: _470  and  _473
REMARK  176  A    between atoms: _473  and  _474
REMARK  177  A    between atoms: _474  and  _475
REMARK  178  A    between atoms: _475  and  _476
REMARK  179  A    between atoms: _476  and  ZN_722
REMARK  180  A    between atoms: _478  and  _480
REMARK  181  A    between atoms: _480  and  _481
REMARK  182  A    between atoms: _484  and  _486
REMARK  183  A    between atoms: _486  and  _487
REMARK  184  A    between atoms: _489  and  _491
REMARK  185  A    between atoms: _491  and  _492
REMARK  186  A    between atoms: _491  and  _494
REMARK  187  A    between atoms: _494  and  _495
REMARK  188  A    between atoms: _498  and  _500
REMARK  189  A    between atoms: _500  and  _501
REMARK  190  A    between atoms: _504  and  _506
REMARK  191  A    between atoms: _506  and  _507
REMARK  192  A    between atoms: _506  and  _509
REMARK  193  A    between atoms: _509  and  _510
REMARK  194  A    between atoms: _513  and  _515
REMARK  195  A    between atoms: _515  and  _516
REMARK  196  A    between atoms: _515  and  _518
REMARK  197  A    between atoms: _518  and  _519
REMARK  198  A    between atoms: _519  and  _520
REMARK  199  A    between atoms: _520  and  _521
REMARK  200  A    between atoms: _521  and  _522
REMARK  201  A    between atoms: _526  and  _528
REMARK  202  A    between atoms: _528  and  _529
REMARK  203  A    between atoms: _528  and  _531
REMARK  204  A    between atoms: _531  and  _532
REMARK  205  A    between atoms: _538  and  _540
REMARK  206  A    between atoms: _540  and  _541
REMARK  207  A    between atoms: _540  and  _543
REMARK  208  A    between atoms: _543  and  _544
REMARK  209  A    between atoms: _550  and  _552
REMARK  210  A    between atoms: _552  and  _553
REMARK  211  A    between atoms: _552  and  _555
REMARK  212  A    between atoms: _555  and  _556
REMARK  213  A    between atoms: _558  and  _560
REMARK  214  A    between atoms: _560  and  _561
REMARK  215  A    between atoms: _560  and  _563
REMARK  216  A    between atoms: _566  and  _568
REMARK  217  A    between atoms: _568  and  _569
REMARK  218  A    between atoms: _568  and  _571
REMARK  219  A    between atoms: _571  and  _572
REMARK  220  A    between atoms: _572  and  _573
REMARK  221  A    between atoms: _573  and  _574
REMARK  222  A    between atoms: _574  and  _575
REMARK  223  A    between atoms: _579  and  _581
REMARK  224  A    between atoms: _581  and  _582
REMARK  225  A    between atoms: _581  and  _584
REMARK  226  A    between atoms: _584  and  _585
REMARK  227  A    between atoms: _591  and  _593
REMARK  228  A    between atoms: _593  and  _594
REMARK  229  A    between atoms: _593  and  _596
REMARK  230  A    between atoms: _596  and  _597
REMARK  231  A    between atoms: _602  and  _604
REMARK  232  A    between atoms: _604  and  _605
REMARK  233  A    between atoms: _604  and  _607
REMARK  234  A    between atoms: _607  and  _608
REMARK  235  A    between atoms: _610  and  _612
REMARK  236  A    between atoms: _612  and  _613
REMARK  237  A    between atoms: _612  and  _615
REMARK  238  A    between atoms: _615  and  _616
REMARK  239  A    between atoms: _618  and  _620
REMARK  240  A    between atoms: _620  and  _621
REMARK  241  A    between atoms: _620  and  _623
REMARK  242  A    between atoms: _627  and  _628
REMARK  243  A    between atoms: _633  and  _635
REMARK  244  A    between atoms: _635  and  _636
REMARK  245  A    between atoms: _635  and  _638
REMARK  246  A    between atoms: _638  and  _639
REMARK  247  A    between atoms: _644  and  _645
REMARK  248  A    between atoms: _647  and  _649
REMARK  249  A    between atoms: _649  and  _650
REMARK  250  A    between atoms: _649  and  _652
REMARK  251  A    between atoms: _652  and  _653
REMARK  252  A    between atoms: _653  and  _654
REMARK  253  A    between atoms: _654  and  _655
REMARK  254  A    between atoms: _664  and  _666
REMARK  255  A    between atoms: _666  and  _667
REMARK  256  A    between atoms: _666  and  _669
REMARK  257  A    between atoms: _669  and  _670
REMARK  258  A    between atoms: _675  and  _676
REMARK  259  A    between atoms: _678  and  _680
REMARK  260  A    between atoms: _680  and  _681
REMARK  261  A    between atoms: _680  and  _683
REMARK  262  A    between atoms: _683  and  _684
REMARK  263  A    between atoms: _690  and  _692
REMARK  264  A    between atoms: _692  and  _693
REMARK  265  A    between atoms: _692  and  _695
REMARK  266  A    between atoms: _695  and  _696
REMARK  267  A    between atoms: _698  and  _700
REMARK  268  A    between atoms: _700  and  _701
REMARK  269  A    between atoms: _700  and  _703
REMARK  270  A    between atoms: _703  and  _704
REMARK  271  A    between atoms: _710  and  _712
REMARK  272  A    between atoms: _712  and  _713
REMARK  273  A    between atoms: _712  and  _715
REMARK  274  A    between atoms: _715  and  _716
REMARK  275  A    between atoms: _716  and  _717
REMARK                            x       y       z     vdW  Elec       q    Type
REMARK                         _______ _______ _______ _____ _____    ______ ____
ROOT
ATOM      1  O   HOH     1      38.924  36.935  56.264  0.00  0.00    +0.000 OA
ENDROOT
TORSDOF 0
REMARK  Name = ../refined-set-2016/2oc2/2oc2_pocket.pdb
REMARK  275 active torsions:
REMARK  status: ('A' for Active; 'I' for Inactive)
REMARK    1  A    between atoms: _1  and  _3
REMARK    2  A    between atoms: _3  and  _4
REMARK    3  A    between atoms: _3  and  _6
REMARK    4  A    between atoms: _6  and  _7
REMARK    5  A    between atoms: _12  and  _14
REMARK    6  A    between atoms: _14  and  _15
REMARK    7  A    between atoms: _14  and  _17
REMARK    8  A    between atoms: _17  and  _18
REMARK    9  A    between atoms: _23  and  _25
REMARK   10  A    between atoms: _25  and  _26
REMARK   11  A    between atoms: _25  and  _28
REMARK   12  A    between atoms: _28  and  _29
REMARK   13  A    between atoms: _29  and  _30
REMARK   14  A    between atoms: _33  and  _35
REMARK   15  A    between atoms: _35  and  _36
REMARK   16  A    between atoms: _35  and  _38
REMARK   17  A    between atoms: _38  and  _39
REMARK   18  A    between atoms: _44  and  _45
REMARK   19  A    between atoms: _47  and  _49
REMARK   20  A    between atoms: _49  and  _50
REMARK   21  A    between atoms: _49  and  _52
REMARK   22  A    between atoms: _52  and  _53
REMARK   23  A    between atoms: _53  and  _54
REMARK   24  A    between atoms: _57  and  _59
REMARK   25  A    between atoms: _59  and  _60
REMARK   26  A    between atoms: _59  and  _62
REMARK   27  A    between atoms: _62  and  _63
REMARK   28  A    between atoms: _68  and  _70
REMARK   29  A    between atoms: _70  and  _71
REMARK   30  A    between atoms: _70  and  _73
REMARK   31  A    between atoms: _73  and  _74
REMARK   32  A    between atoms: _84  and  _86
REMARK   33  A    between atoms: _86  and  _87
REMARK   34  A    between atoms: _86  and  _89
REMARK   35  A    between atoms: _89  and  _90
REMARK   36  A    between atoms: _90  and  _91
REMARK   37  A    between atoms: _96  and  _98
REMARK   38  A    between atoms: _98  and  _99
REMARK   39  A    between atoms: _98  and  _101
REMARK   40  A    between atoms: _101  and  _102
REMARK   41  A    between atoms: _105  and  _107
REMARK   42  A    between atoms: _107  and  _108
REMARK   43  A    between atoms: _107  and  _110
REMARK   44  A    between atoms: _113  and  _115
REMARK   45  A    between atoms: _115  and  _116
REMARK   46  A    between atoms: _115  and  _118
REMARK   47  A    between atoms: _118  and  _119
REMARK   48  A    between atoms: _119  and  _247
REMARK   49  A    between atoms: _120  and  _122
REMARK   50  A    between atoms: _122  and  _123
REMARK   51  A    between atoms: _122  and  _125
REMARK   52  A    between atoms: _125  and  _126
REMARK   53  A    between atoms: _131  and  _133
REMARK   54  A    between atoms: _133  and  _134
REMARK   55  A    between atoms: _137  and  _139
REMARK   56  A    between atoms: _139  and  _140
REMARK   57  A    between atoms: _139  and  _142
REMARK   58  A    between atoms: _142  and  _143
REMARK   59  A    between atoms: _145  and  _147
REMARK   60  A    between atoms: _147  and  _148
REMARK   61  A    between atoms: _151  and  _153
REMARK   62  A    between atoms: _153  and  _154
REMARK   63  A    between atoms: _153  and  _156
REMARK   64  A    between atoms: _156  and  _157
REMARK   65  A    between atoms: _167  and  _169
REMARK   66  A    between atoms: _169  and  _170
REMARK   67  A    between atoms: _169  and  _172
REMARK   68  A    between atoms: _172  and  _173
REMARK   69  A    between atoms: _176  and  _178
REMARK   70  A    between atoms: _178  and  _179
REMARK   71  A    between atoms: _178  and  _181
REMARK   72  A    between atoms: _181  and  _182
REMARK   73  A    between atoms: _187  and  _188
REMARK   74  A    between atoms: _190  and  _192
REMARK   75  A    between atoms: _192  and  _193
REMARK   76  A    between atoms: _192  and  _195
REMARK   77  A    between atoms: _195  and  _196
REMARK   78  A    between atoms: _196  and  _197
REMARK   79  A    between atoms: _197  and  _198
REMARK   80  A    between atoms: _207  and  _209
REMARK   81  A    between atoms: _209  and  _210
REMARK   82  A    between atoms: _209  and  _212
REMARK   83  A    between atoms: _212  and  _213
REMARK   84  A    between atoms: _216  and  _218
REMARK   85  A    between atoms: _218  and  _219
REMARK   86  A    between atoms: _218  and  _221
REMARK   87  A    between atoms: _221  and  _222
REMARK   88  A    between atoms: _222  and  _223
REMARK   89  A    between atoms: _223  and  _224
REMARK   90  A    between atoms: _224  and  _225
REMARK   91  A    between atoms: _229  and  _231
REMARK   92  A    between atoms: _231  and  _232
REMARK   93  A    between atoms: _231  and  _234
REMARK   94  A    between atoms: _234  and  _235
REMARK   95  A    between atoms: _235  and  _236
REMARK   96  A    between atoms: _241  and  _243
REMARK   97  A    between atoms: _243  and  _244
REMARK   98  A    between atoms: _243  and  _246
REMARK   99  A    between atoms: _246  and  _247
REMARK  100  A    between atoms: _248  and  _250
REMARK  101  A    between atoms: _250  and  _251
REMARK  102  A    between atoms: _250  and  _253
REMARK  103  A    between atoms: _253  and  _254
REMARK  104  A    between atoms: _254  and  _255
REMARK  105  A    between atoms: _258  and  _260
REMARK  106  A    between atoms: _260  and  _261
REMARK  107  A    between atoms: _260  and  _263
REMARK  108  A    between atoms: _263  and  _264
REMARK  109  A    between atoms: _267  and  _269
REMARK  110  A    between atoms: _269  and  _270
REMARK  111  A    between atoms: _269  and  _272
REMARK  112  A    between atoms: _275  and  _277
REMARK  113  A    between atoms: _277  and  _278
REMARK  114  A    between atoms: _277  and  _280
REMARK  115  A    between atoms: _283  and  _285
REMARK  116  A    between atoms: _285  and  _286
REMARK  117  A    between atoms: _289  and  _291
REMARK  118  A    between atoms: _291  and  _292
REMARK  119  A    between atoms: _291  and  _294
REMARK  120  A    between atoms: _294  and  _295
REMARK  121  A    between atoms: _300  and  _302
REMARK  122  A    between atoms: _313  and  _316
REMARK  123  A    between atoms: _316  and  _317
REMARK  124  A    between atoms: _317  and  _318
REMARK  125  A    between atoms: _323  and  _326
REMARK  126  A    between atoms: _326  and  _327
REMARK  127  A    between atoms: _327  and  _328
REMARK  128  A    between atoms: _337  and  _338
REMARK  129  A    between atoms: _346  and  _348
REMARK  130  A    between atoms: _348  and  _349
REMARK  131  A    between atoms: _348  and  _351
REMARK  132  A    between atoms: _351  and  _352
REMARK  133  A    between atoms: _355  and  _357
REMARK  134  A    between atoms: _357  and  _358
REMARK  135  A    between atoms: _357  and  _360
REMARK  136  A    between atoms: _360  and  _361
REMARK  137  A    between atoms: _366  and  _367
REMARK  138  A    between atoms: _369  and  _371
REMARK  139  A    between atoms: _371  and  _372
REMARK  140  A    between atoms: _371  and  _374
REMARK  141  A    between atoms: _374  and  _375
REMARK  142  A    between atoms: _381  and  _383
REMARK  143  A    between atoms: _383  and  _384
REMARK  144  A    between atoms: _383  and  _386
REMARK  145  A    between atoms: _386  and  _387
REMARK  146  A    between atoms: _392  and  _393
REMARK  147  A    between atoms: _395  and  _397
REMARK  148  A    between atoms: _397  and  _398
REMARK  149  A    between atoms: _397  and  _400
REMARK  150  A    between atoms: _400  and  _401
REMARK  151  A    between atoms: _401  and  _402
REMARK  152  A    between atoms: _402  and  _403
REMARK  153  A    between atoms: _412  and  _414
REMARK  154  A    between atoms: _414  and  _415
REMARK  155  A    between atoms: _414  and  _417
REMARK  156  A    between atoms: _417  and  _418
REMARK  157  A    between atoms: _418  and  _419
REMARK  158  A    between atoms: _422  and  _424
REMARK  159  A    between atoms: _424  and  _425
REMARK  160  A    between atoms: _427  and  _429
REMARK  161  A    between atoms: _429  and  _430
REMARK  162  A    between atoms: _429  and  _432
REMARK  163  A    between atoms: _432  and  _433
REMARK  164  A    between atoms: _439  and  _440
REMARK  165  A    between atoms: _445  and  _447
REMARK  166  A    between atoms: _447  and  _448
REMARK  167  A    between atoms: _447  and  _450
REMARK  168  A    between atoms: _450  and  _451
REMARK  169  A    between atoms: _457  and  _459
REMARK  170  A    between atoms: _459  and  _460
REMARK  171  A    between atoms: _459  and  _462
REMARK  172  A    between atoms: _462  and  _463
REMARK  173  A    between atoms: _468  and  _470
REMARK  174  A    between atoms: _470  and  _471
REMARK  175  A    between atoms: _470  and  _473
REMARK  176  A    between atoms: _473  and  _474
REMARK  177  A    between atoms: _474  and  _475
REMARK  178  A    between atoms: _475  and  _476
REMARK  179  A    between atoms: _476  and  ZN_722
REMARK  180  A    between atoms: _478  and  _480
REMARK  181  A    between atoms: _480  and  _481
REMARK  182  A    between atoms: _484  and  _486
REMARK  183  A    between atoms: _486  and  _487
REMARK  184  A    between atoms: _489  and  _491
REMARK  185  A    between atoms: _491  and  _492
REMARK  186  A    between atoms: _491  and  _494
REMARK  187  A    between atoms: _494  and  _495
REMARK  188  A    between atoms: _498  and  _500
REMARK  189  A    between atoms: _500  and  _501
REMARK  190  A    between atoms: _504  and  _506
REMARK  191  A    between atoms: _506  and  _507
REMARK  192  A    between atoms: _506  and  _509
REMARK  193  A    between atoms: _509  and  _510
REMARK  194  A    between atoms: _513  and  _515
REMARK  195  A    between atoms: _515  and  _516
REMARK  196  A    between atoms: _515  and  _518
REMARK  197  A    between atoms: _518  and  _519
REMARK  198  A    between atoms: _519  and  _520
REMARK  199  A    between atoms: _520  and  _521
REMARK  200  A    between atoms: _521  and  _522
REMARK  201  A    between atoms: _526  and  _528
REMARK  202  A    between atoms: _528  and  _529
REMARK  203  A    between atoms: _528  and  _531
REMARK  204  A    between atoms: _531  and  _532
REMARK  205  A    between atoms: _538  and  _540
REMARK  206  A    between atoms: _540  and  _541
REMARK  207  A    between atoms: _540  and  _543
REMARK  208  A    between atoms: _543  and  _544
REMARK  209  A    between atoms: _550  and  _552
REMARK  210  A    between atoms: _552  and  _553
REMARK  211  A    between atoms: _552  and  _555
REMARK  212  A    between atoms: _555  and  _556
REMARK  213  A    between atoms: _558  and  _560
REMARK  214  A    between atoms: _560  and  _561
REMARK  215  A    between atoms: _560  and  _563
REMARK  216  A    between atoms: _566  and  _568
REMARK  217  A    between atoms: _568  and  _569
REMARK  218  A    between atoms: _568  and  _571
REMARK  219  A    between atoms: _571  and  _572
REMARK  220  A    between atoms: _572  and  _573
REMARK  221  A    between atoms: _573  and  _574
REMARK  222  A    between atoms: _574  and  _575
REMARK  223  A    between atoms: _579  and  _581
REMARK  224  A    between atoms: _581  and  _582
REMARK  225  A    between atoms: _581  and  _584
REMARK  226  A    between atoms: _584  and  _585
REMARK  227  A    between atoms: _591  and  _593
REMARK  228  A    between atoms: _593  and  _594
REMARK  229  A    between atoms: _593  and  _596
REMARK  230  A    between atoms: _596  and  _597
REMARK  231  A    between atoms: _602  and  _604
REMARK  232  A    between atoms: _604  and  _605
REMARK  233  A    between atoms: _604  and  _607
REMARK  234  A    between atoms: _607  and  _608
REMARK  235  A    between atoms: _610  and  _612
REMARK  236  A    between atoms: _612  and  _613
REMARK  237  A    between atoms: _612  and  _615
REMARK  238  A    between atoms: _615  and  _616
REMARK  239  A    between atoms: _618  and  _620
REMARK  240  A    between atoms: _620  and  _621
REMARK  241  A    between atoms: _620  and  _623
REMARK  242  A    between atoms: _627  and  _628
REMARK  243  A    between atoms: _633  and  _635
REMARK  244  A    between atoms: _635  and  _636
REMARK  245  A    between atoms: _635  and  _638
REMARK  246  A    between atoms: _638  and  _639
REMARK  247  A    between atoms: _644  and  _645
REMARK  248  A    between atoms: _647  and  _649
REMARK  249  A    between atoms: _649  and  _650
REMARK  250  A    between atoms: _649  and  _652
REMARK  251  A    between atoms: _652  and  _653
REMARK  252  A    between atoms: _653  and  _654
REMARK  253  A    between atoms: _654  and  _655
REMARK  254  A    between atoms: _664  and  _666
REMARK  255  A    between atoms: _666  and  _667
REMARK  256  A    between atoms: _666  and  _669
REMARK  257  A    between atoms: _669  and  _670
REMARK  258  A    between atoms: _675  and  _676
REMARK  259  A    between atoms: _678  and  _680
REMARK  260  A    between atoms: _680  and  _681
REMARK  261  A    between atoms: _680  and  _683
REMARK  262  A    between atoms: _683  and  _684
REMARK  263  A    between atoms: _690  and  _692
REMARK  264  A    between atoms: _692  and  _693
REMARK  265  A    between atoms: _692  and  _695
REMARK  266  A    between atoms: _695  and  _696
REMARK  267  A    between atoms: _698  and  _700
REMARK  268  A    between atoms: _700  and  _701
REMARK  269  A    between atoms: _700  and  _703
REMARK  270  A    between atoms: _703  and  _704
REMARK  271  A    between atoms: _710  and  _712
REMARK  272  A    between atoms: _712  and  _713
REMARK  273  A    between atoms: _712  and  _715
REMARK  274  A    between atoms: _715  and  _716
REMARK  275  A    between atoms: _716  and  _717
REMARK                            x       y       z     vdW  Elec       q    Type
REMARK                         _______ _______ _______ _____ _____    ______ ____
ROOT
ATOM      1  O   HOH     1      36.957  32.495  54.447  0.00  0.00    +0.000 OA
ENDROOT
TORSDOF 0
