REMARK  Name = ../refined-set-2016/2vwl/2vwl_pocket.pdb
REMARK  219 active torsions:
REMARK  status: ('A' for Active; 'I' for Inactive)
REMARK    1  A    between atoms: _1  and  _5
REMARK    2  A    between atoms: _5  and  _6
REMARK    3  A    between atoms: _5  and  _8
REMARK    4  A    between atoms: _8  and  _9
REMARK    5  A    between atoms: _12  and  _14
REMARK    6  A    between atoms: _14  and  _15
REMARK    7  A    between atoms: _14  and  _17
REMARK    8  A    between atoms: _20  and  _22
REMARK    9  A    between atoms: _22  and  _23
REMARK   10  A    between atoms: _22  and  _25
REMARK   11  A    between atoms: _25  and  _26
REMARK   12  A    between atoms: _31  and  _33
REMARK   13  A    between atoms: _33  and  _34
REMARK   14  A    between atoms: _33  and  _36
REMARK   15  A    between atoms: _36  and  _37
REMARK   16  A    between atoms: _37  and  _38
REMARK   17  A    between atoms: _43  and  _45
REMARK   18  A    between atoms: _45  and  _46
REMARK   19  A    between atoms: _45  and  _48
REMARK   20  A    between atoms: _48  and  _49
REMARK   21  A    between atoms: _52  and  _54
REMARK   22  A    between atoms: _54  and  _55
REMARK   23  A    between atoms: _54  and  _57
REMARK   24  A    between atoms: _57  and  _58
REMARK   25  A    between atoms: _58  and  _59
REMARK   26  A    between atoms: _59  and  _60
REMARK   27  A    between atoms: _60  and  _61
REMARK   28  A    between atoms: _65  and  _67
REMARK   29  A    between atoms: _67  and  _68
REMARK   30  A    between atoms: _67  and  _70
REMARK   31  A    between atoms: _70  and  _71
REMARK   32  A    between atoms: _71  and  _72
REMARK   33  A    between atoms: _75  and  _77
REMARK   34  A    between atoms: _77  and  _78
REMARK   35  A    between atoms: _77  and  _80
REMARK   36  A    between atoms: _80  and  _81
REMARK   37  A    between atoms: _84  and  _86
REMARK   38  A    between atoms: _86  and  _87
REMARK   39  A    between atoms: _86  and  _89
REMARK   40  A    between atoms: _89  and  _90
REMARK   41  A    between atoms: _95  and  _96
REMARK   42  A    between atoms: _98  and  _100
REMARK   43  A    between atoms: _100  and  _101
REMARK   44  A    between atoms: _100  and  _103
REMARK   45  A    between atoms: _103  and  _104
REMARK   46  A    between atoms: _107  and  _109
REMARK   47  A    between atoms: _109  and  _110
REMARK   48  A    between atoms: _109  and  _112
REMARK   49  A    between atoms: _112  and  _113
REMARK   50  A    between atoms: _116  and  _118
REMARK   51  A    between atoms: _118  and  _119
REMARK   52  A    between atoms: _118  and  _121
REMARK   53  A    between atoms: _124  and  _126
REMARK   54  A    between atoms: _126  and  _127
REMARK   55  A    between atoms: _126  and  _129
REMARK   56  A    between atoms: _129  and  _130
REMARK   57  A    between atoms: _130  and  _131
REMARK   58  A    between atoms: _131  and  _132
REMARK   59  A    between atoms: _141  and  _143
REMARK   60  A    between atoms: _143  and  _144
REMARK   61  A    between atoms: _143  and  _146
REMARK   62  A    between atoms: _146  and  _147
REMARK   63  A    between atoms: _152  and  _154
REMARK   64  A    between atoms: _154  and  _155
REMARK   65  A    between atoms: _154  and  _157
REMARK   66  A    between atoms: _157  and  _158
REMARK   67  A    between atoms: _158  and  _159
REMARK   68  A    between atoms: _162  and  _164
REMARK   69  A    between atoms: _164  and  _165
REMARK   70  A    between atoms: _164  and  _167
REMARK   71  A    between atoms: _167  and  _168
REMARK   72  A    between atoms: _168  and  _169
REMARK   73  A    between atoms: _169  and  _170
REMARK   74  A    between atoms: _170  and  _171
REMARK   75  A    between atoms: _175  and  _177
REMARK   76  A    between atoms: _177  and  _178
REMARK   77  A    between atoms: _177  and  _180
REMARK   78  A    between atoms: _183  and  _185
REMARK   79  A    between atoms: _185  and  _186
REMARK   80  A    between atoms: _185  and  _188
REMARK   81  A    between atoms: _188  and  _189
REMARK   82  A    between atoms: _191  and  _193
REMARK   83  A    between atoms: _193  and  _194
REMARK   84  A    between atoms: _193  and  _196
REMARK   85  A    between atoms: _196  and  _197
REMARK   86  A    between atoms: _199  and  _201
REMARK   87  A    between atoms: _201  and  _202
REMARK   88  A    between atoms: _201  and  _204
REMARK   89  A    between atoms: _204  and  _205
REMARK   90  A    between atoms: _211  and  _213
REMARK   91  A    between atoms: _213  and  _214
REMARK   92  A    between atoms: _213  and  _216
REMARK   93  A    between atoms: _216  and  _217
REMARK   94  A    between atoms: _220  and  _222
REMARK   95  A    between atoms: _222  and  _223
REMARK   96  A    between atoms: _222  and  _225
REMARK   97  A    between atoms: _225  and  _226
REMARK   98  A    between atoms: _229  and  _231
REMARK   99  A    between atoms: _231  and  _232
REMARK  100  A    between atoms: _231  and  _234
REMARK  101  A    between atoms: _234  and  _235
REMARK  102  A    between atoms: _238  and  _240
REMARK  103  A    between atoms: _240  and  _241
REMARK  104  A    between atoms: _240  and  _243
REMARK  105  A    between atoms: _243  and  _244
REMARK  106  A    between atoms: _244  and  _245
REMARK  107  A    between atoms: _247  and  _249
REMARK  108  A    between atoms: _249  and  _250
REMARK  109  A    between atoms: _249  and  _252
REMARK  110  A    between atoms: _252  and  _253
REMARK  111  A    between atoms: _259  and  _261
REMARK  112  A    between atoms: _261  and  _262
REMARK  113  A    between atoms: _261  and  _264
REMARK  114  A    between atoms: _266  and  _268
REMARK  115  A    between atoms: _268  and  _269
REMARK  116  A    between atoms: _272  and  _274
REMARK  117  A    between atoms: _274  and  _275
REMARK  118  A    between atoms: _277  and  _279
REMARK  119  A    between atoms: _279  and  _280
REMARK  120  A    between atoms: _279  and  _282
REMARK  121  A    between atoms: _282  and  _283
REMARK  122  A    between atoms: _283  and  _284
REMARK  123  A    between atoms: _287  and  _289
REMARK  124  A    between atoms: _289  and  _290
REMARK  125  A    between atoms: _289  and  _292
REMARK  126  A    between atoms: _292  and  _293
REMARK  127  A    between atoms: _296  and  _298
REMARK  128  A    between atoms: _298  and  _299
REMARK  129  A    between atoms: _302  and  _304
REMARK  130  A    between atoms: _304  and  _305
REMARK  131  A    between atoms: _304  and  _307
REMARK  132  A    between atoms: _307  and  _308
REMARK  133  A    between atoms: _308  and  _431
REMARK  134  A    between atoms: _309  and  _311
REMARK  135  A    between atoms: _311  and  _312
REMARK  136  A    between atoms: _311  and  _314
REMARK  137  A    between atoms: _314  and  _315
REMARK  138  A    between atoms: _315  and  _316
REMARK  139  A    between atoms: _321  and  _323
REMARK  140  A    between atoms: _323  and  _324
REMARK  141  A    between atoms: _326  and  _328
REMARK  142  A    between atoms: _328  and  _329
REMARK  143  A    between atoms: _328  and  _331
REMARK  144  A    between atoms: _331  and  _332
REMARK  145  A    between atoms: _335  and  _337
REMARK  146  A    between atoms: _337  and  _338
REMARK  147  A    between atoms: _337  and  _340
REMARK  148  A    between atoms: _340  and  _341
REMARK  149  A    between atoms: _343  and  _345
REMARK  150  A    between atoms: _345  and  _346
REMARK  151  A    between atoms: _348  and  _350
REMARK  152  A    between atoms: _350  and  _351
REMARK  153  A    between atoms: _353  and  _355
REMARK  154  A    between atoms: _355  and  _356
REMARK  155  A    between atoms: _355  and  _358
REMARK  156  A    between atoms: _358  and  _359
REMARK  157  A    between atoms: _364  and  _366
REMARK  158  A    between atoms: _366  and  _367
REMARK  159  A    between atoms: _366  and  _369
REMARK  160  A    between atoms: _369  and  _370
REMARK  161  A    between atoms: _373  and  _375
REMARK  162  A    between atoms: _375  and  _376
REMARK  163  A    between atoms: _375  and  _378
REMARK  164  A    between atoms: _381  and  _383
REMARK  165  A    between atoms: _383  and  _384
REMARK  166  A    between atoms: _383  and  _386
REMARK  167  A    between atoms: _386  and  _387
REMARK  168  A    between atoms: _389  and  _391
REMARK  169  A    between atoms: _391  and  _392
REMARK  170  A    between atoms: _391  and  _394
REMARK  171  A    between atoms: _394  and  _395
REMARK  172  A    between atoms: _405  and  _407
REMARK  173  A    between atoms: _407  and  _408
REMARK  174  A    between atoms: _410  and  _412
REMARK  175  A    between atoms: _412  and  _413
REMARK  176  A    between atoms: _412  and  _415
REMARK  177  A    between atoms: _415  and  _416
REMARK  178  A    between atoms: _416  and  _417
REMARK  179  A    between atoms: _420  and  _422
REMARK  180  A    between atoms: _422  and  _423
REMARK  181  A    between atoms: _425  and  _427
REMARK  182  A    between atoms: _427  and  _428
REMARK  183  A    between atoms: _427  and  _430
REMARK  184  A    between atoms: _430  and  _431
REMARK  185  A    between atoms: _432  and  _434
REMARK  186  A    between atoms: _434  and  _435
REMARK  187  A    between atoms: _438  and  _440
REMARK  188  A    between atoms: _440  and  _441
REMARK  189  A    between atoms: _440  and  _443
REMARK  190  A    between atoms: _443  and  _444
REMARK  191  A    between atoms: _444  and  _445
REMARK  192  A    between atoms: _445  and  _446
REMARK  193  A    between atoms: _455  and  _457
REMARK  194  A    between atoms: _457  and  _458
REMARK  195  A    between atoms: _457  and  _460
REMARK  196  A    between atoms: _460  and  _461
REMARK  197  A    between atoms: _461  and  _462
REMARK  198  A    between atoms: _462  and  _463
REMARK  199  A    between atoms: _463  and  _464
REMARK  200  A    between atoms: _468  and  _470
REMARK  201  A    between atoms: _470  and  _471
REMARK  202  A    between atoms: _470  and  _473
REMARK  203  A    between atoms: _473  and  _474
REMARK  204  A    between atoms: _479  and  _480
REMARK  205  A    between atoms: _482  and  _484
REMARK  206  A    between atoms: _484  and  _485
REMARK  207  A    between atoms: _487  and  _489
REMARK  208  A    between atoms: _489  and  _490
REMARK  209  A    between atoms: _489  and  _492
REMARK  210  A    between atoms: _492  and  _493
REMARK  211  A    between atoms: _496  and  _498
REMARK  212  A    between atoms: _498  and  _499
REMARK  213  A    between atoms: _498  and  _501
REMARK  214  A    between atoms: _501  and  _502
REMARK  215  A    between atoms: _507  and  _508
REMARK  216  A    between atoms: _510  and  _512
REMARK  217  A    between atoms: _512  and  _513
REMARK  218  A    between atoms: _512  and  _515
REMARK  219  A    between atoms: _515  and  _516
REMARK                            x       y       z     vdW  Elec       q    Type
REMARK                         _______ _______ _______ _____ _____    ______ ____
ROOT
ATOM      1  C   ILE A   1      19.896  72.226   7.930  0.00  0.00    +0.202 C 
ATOM      2  N   VAL A   2      19.026  71.865   8.874  0.00  0.00    -0.301 N 
ATOM      3  H   VAL A   2      18.694  70.880   8.890  0.00  0.00    +0.150 HD
ATOM      4  O   ILE A   1      20.261  73.402   7.736  0.00  0.00    -0.277 OA
ENDROOT
BRANCH   1   5
ATOM      5  CA  ILE A   1      20.416  71.104   7.030  0.00  0.00    +0.013 C 
BRANCH   5   6
ATOM      6  N   ILE A   1      20.060  71.415   5.620  0.00  0.00    +0.387 N 
ATOM      7  H1  ILE A   1      19.026  71.487   5.532  0.00  0.00    -0.089 HD
ATOM      8  H2  ILE A   1      20.496  72.318   5.345  0.00  0.00    -0.089 HD
ATOM      9  H3  ILE A   1      20.410  70.657   5.000  0.00  0.00    -0.089 HD
ENDBRANCH   5   6
BRANCH   5  10
ATOM     10  CB  ILE A   1      21.953  70.927   7.210  0.00  0.00    -0.011 C 
ATOM     11  CG2 ILE A   1      22.286  70.599   8.630  0.00  0.00    -0.002 C 
BRANCH  10  12
ATOM     12  CG1 ILE A   1      22.516  69.889   6.226  0.00  0.00    -0.002 C 
ATOM     13  CD1 ILE A   1      22.126  68.406   6.515  0.00  0.00    -0.000 C 
ENDBRANCH  10  12
ENDBRANCH   5  10
ENDBRANCH   1   5
BRANCH   2  14
ATOM     14  CA  VAL A   2      18.511  72.796   9.898  0.00  0.00    +0.137 C 
BRANCH  14  15
ATOM     15  CB  VAL A   2      17.061  72.442  10.317  0.00  0.00    +0.026 C 
ATOM     16  CG2 VAL A   2      16.504  73.457  11.326  0.00  0.00    +0.002 C 
ATOM     17  CG1 VAL A   2      16.156  72.372   9.113  0.00  0.00    +0.002 C 
ENDBRANCH  14  15
BRANCH  14  18
ATOM     18  C   VAL A   2      19.454  72.678  11.098  0.00  0.00    +0.227 C 
ATOM     19  O   VAL A   2      19.760  71.574  11.558  0.00  0.00    -0.286 OA
ENDBRANCH  14  18
ENDBRANCH   2  14
TORSDOF 7
REMARK  Name = ../refined-set-2016/2vwl/2vwl_pocket.pdb
REMARK  219 active torsions:
REMARK  status: ('A' for Active; 'I' for Inactive)
REMARK    1  A    between atoms: _1  and  _5
REMARK    2  A    between atoms: _5  and  _6
REMARK    3  A    between atoms: _5  and  _8
REMARK    4  A    between atoms: _8  and  _9
REMARK    5  A    between atoms: _12  and  _14
REMARK    6  A    between atoms: _14  and  _15
REMARK    7  A    between atoms: _14  and  _17
REMARK    8  A    between atoms: _20  and  _22
REMARK    9  A    between atoms: _22  and  _23
REMARK   10  A    between atoms: _22  and  _25
REMARK   11  A    between atoms: _25  and  _26
REMARK   12  A    between atoms: _31  and  _33
REMARK   13  A    between atoms: _33  and  _34
REMARK   14  A    between atoms: _33  and  _36
REMARK   15  A    between atoms: _36  and  _37
REMARK   16  A    between atoms: _37  and  _38
REMARK   17  A    between atoms: _43  and  _45
REMARK   18  A    between atoms: _45  and  _46
REMARK   19  A    between atoms: _45  and  _48
REMARK   20  A    between atoms: _48  and  _49
REMARK   21  A    between atoms: _52  and  _54
REMARK   22  A    between atoms: _54  and  _55
REMARK   23  A    between atoms: _54  and  _57
REMARK   24  A    between atoms: _57  and  _58
REMARK   25  A    between atoms: _58  and  _59
REMARK   26  A    between atoms: _59  and  _60
REMARK   27  A    between atoms: _60  and  _61
REMARK   28  A    between atoms: _65  and  _67
REMARK   29  A    between atoms: _67  and  _68
REMARK   30  A    between atoms: _67  and  _70
REMARK   31  A    between atoms: _70  and  _71
REMARK   32  A    between atoms: _71  and  _72
REMARK   33  A    between atoms: _75  and  _77
REMARK   34  A    between atoms: _77  and  _78
REMARK   35  A    between atoms: _77  and  _80
REMARK   36  A    between atoms: _80  and  _81
REMARK   37  A    between atoms: _84  and  _86
REMARK   38  A    between atoms: _86  and  _87
REMARK   39  A    between atoms: _86  and  _89
REMARK   40  A    between atoms: _89  and  _90
REMARK   41  A    between atoms: _95  and  _96
REMARK   42  A    between atoms: _98  and  _100
REMARK   43  A    between atoms: _100  and  _101
REMARK   44  A    between atoms: _100  and  _103
REMARK   45  A    between atoms: _103  and  _104
REMARK   46  A    between atoms: _107  and  _109
REMARK   47  A    between atoms: _109  and  _110
REMARK   48  A    between atoms: _109  and  _112
REMARK   49  A    between atoms: _112  and  _113
REMARK   50  A    between atoms: _116  and  _118
REMARK   51  A    between atoms: _118  and  _119
REMARK   52  A    between atoms: _118  and  _121
REMARK   53  A    between atoms: _124  and  _126
REMARK   54  A    between atoms: _126  and  _127
REMARK   55  A    between atoms: _126  and  _129
REMARK   56  A    between atoms: _129  and  _130
REMARK   57  A    between atoms: _130  and  _131
REMARK   58  A    between atoms: _131  and  _132
REMARK   59  A    between atoms: _141  and  _143
REMARK   60  A    between atoms: _143  and  _144
REMARK   61  A    between atoms: _143  and  _146
REMARK   62  A    between atoms: _146  and  _147
REMARK   63  A    between atoms: _152  and  _154
REMARK   64  A    between atoms: _154  and  _155
REMARK   65  A    between atoms: _154  and  _157
REMARK   66  A    between atoms: _157  and  _158
REMARK   67  A    between atoms: _158  and  _159
REMARK   68  A    between atoms: _162  and  _164
REMARK   69  A    between atoms: _164  and  _165
REMARK   70  A    between atoms: _164  and  _167
REMARK   71  A    between atoms: _167  and  _168
REMARK   72  A    between atoms: _168  and  _169
REMARK   73  A    between atoms: _169  and  _170
REMARK   74  A    between atoms: _170  and  _171
REMARK   75  A    between atoms: _175  and  _177
REMARK   76  A    between atoms: _177  and  _178
REMARK   77  A    between atoms: _177  and  _180
REMARK   78  A    between atoms: _183  and  _185
REMARK   79  A    between atoms: _185  and  _186
REMARK   80  A    between atoms: _185  and  _188
REMARK   81  A    between atoms: _188  and  _189
REMARK   82  A    between atoms: _191  and  _193
REMARK   83  A    between atoms: _193  and  _194
REMARK   84  A    between atoms: _193  and  _196
REMARK   85  A    between atoms: _196  and  _197
REMARK   86  A    between atoms: _199  and  _201
REMARK   87  A    between atoms: _201  and  _202
REMARK   88  A    between atoms: _201  and  _204
REMARK   89  A    between atoms: _204  and  _205
REMARK   90  A    between atoms: _211  and  _213
REMARK   91  A    between atoms: _213  and  _214
REMARK   92  A    between atoms: _213  and  _216
REMARK   93  A    between atoms: _216  and  _217
REMARK   94  A    between atoms: _220  and  _222
REMARK   95  A    between atoms: _222  and  _223
REMARK   96  A    between atoms: _222  and  _225
REMARK   97  A    between atoms: _225  and  _226
REMARK   98  A    between atoms: _229  and  _231
REMARK   99  A    between atoms: _231  and  _232
REMARK  100  A    between atoms: _231  and  _234
REMARK  101  A    between atoms: _234  and  _235
REMARK  102  A    between atoms: _238  and  _240
REMARK  103  A    between atoms: _240  and  _241
REMARK  104  A    between atoms: _240  and  _243
REMARK  105  A    between atoms: _243  and  _244
REMARK  106  A    between atoms: _244  and  _245
REMARK  107  A    between atoms: _247  and  _249
REMARK  108  A    between atoms: _249  and  _250
REMARK  109  A    between atoms: _249  and  _252
REMARK  110  A    between atoms: _252  and  _253
REMARK  111  A    between atoms: _259  and  _261
REMARK  112  A    between atoms: _261  and  _262
REMARK  113  A    between atoms: _261  and  _264
REMARK  114  A    between atoms: _266  and  _268
REMARK  115  A    between atoms: _268  and  _269
REMARK  116  A    between atoms: _272  and  _274
REMARK  117  A    between atoms: _274  and  _275
REMARK  118  A    between atoms: _277  and  _279
REMARK  119  A    between atoms: _279  and  _280
REMARK  120  A    between atoms: _279  and  _282
REMARK  121  A    between atoms: _282  and  _283
REMARK  122  A    between atoms: _283  and  _284
REMARK  123  A    between atoms: _287  and  _289
REMARK  124  A    between atoms: _289  and  _290
REMARK  125  A    between atoms: _289  and  _292
REMARK  126  A    between atoms: _292  and  _293
REMARK  127  A    between atoms: _296  and  _298
REMARK  128  A    between atoms: _298  and  _299
REMARK  129  A    between atoms: _302  and  _304
REMARK  130  A    between atoms: _304  and  _305
REMARK  131  A    between atoms: _304  and  _307
REMARK  132  A    between atoms: _307  and  _308
REMARK  133  A    between atoms: _308  and  _431
REMARK  134  A    between atoms: _309  and  _311
REMARK  135  A    between atoms: _311  and  _312
REMARK  136  A    between atoms: _311  and  _314
REMARK  137  A    between atoms: _314  and  _315
REMARK  138  A    between atoms: _315  and  _316
REMARK  139  A    between atoms: _321  and  _323
REMARK  140  A    between atoms: _323  and  _324
REMARK  141  A    between atoms: _326  and  _328
REMARK  142  A    between atoms: _328  and  _329
REMARK  143  A    between atoms: _328  and  _331
REMARK  144  A    between atoms: _331  and  _332
REMARK  145  A    between atoms: _335  and  _337
REMARK  146  A    between atoms: _337  and  _338
REMARK  147  A    between atoms: _337  and  _340
REMARK  148  A    between atoms: _340  and  _341
REMARK  149  A    between atoms: _343  and  _345
REMARK  150  A    between atoms: _345  and  _346
REMARK  151  A    between atoms: _348  and  _350
REMARK  152  A    between atoms: _350  and  _351
REMARK  153  A    between atoms: _353  and  _355
REMARK  154  A    between atoms: _355  and  _356
REMARK  155  A    between atoms: _355  and  _358
REMARK  156  A    between atoms: _358  and  _359
REMARK  157  A    between atoms: _364  and  _366
REMARK  158  A    between atoms: _366  and  _367
REMARK  159  A    between atoms: _366  and  _369
REMARK  160  A    between atoms: _369  and  _370
REMARK  161  A    between atoms: _373  and  _375
REMARK  162  A    between atoms: _375  and  _376
REMARK  163  A    between atoms: _375  and  _378
REMARK  164  A    between atoms: _381  and  _383
REMARK  165  A    between atoms: _383  and  _384
REMARK  166  A    between atoms: _383  and  _386
REMARK  167  A    between atoms: _386  and  _387
REMARK  168  A    between atoms: _389  and  _391
REMARK  169  A    between atoms: _391  and  _392
REMARK  170  A    between atoms: _391  and  _394
REMARK  171  A    between atoms: _394  and  _395
REMARK  172  A    between atoms: _405  and  _407
REMARK  173  A    between atoms: _407  and  _408
REMARK  174  A    between atoms: _410  and  _412
REMARK  175  A    between atoms: _412  and  _413
REMARK  176  A    between atoms: _412  and  _415
REMARK  177  A    between atoms: _415  and  _416
REMARK  178  A    between atoms: _416  and  _417
REMARK  179  A    between atoms: _420  and  _422
REMARK  180  A    between atoms: _422  and  _423
REMARK  181  A    between atoms: _425  and  _427
REMARK  182  A    between atoms: _427  and  _428
REMARK  183  A    between atoms: _427  and  _430
REMARK  184  A    between atoms: _430  and  _431
REMARK  185  A    between atoms: _432  and  _434
REMARK  186  A    between atoms: _434  and  _435
REMARK  187  A    between atoms: _438  and  _440
REMARK  188  A    between atoms: _440  and  _441
REMARK  189  A    between atoms: _440  and  _443
REMARK  190  A    between atoms: _443  and  _444
REMARK  191  A    between atoms: _444  and  _445
REMARK  192  A    between atoms: _445  and  _446
REMARK  193  A    between atoms: _455  and  _457
REMARK  194  A    between atoms: _457  and  _458
REMARK  195  A    between atoms: _457  and  _460
REMARK  196  A    between atoms: _460  and  _461
REMARK  197  A    between atoms: _461  and  _462
REMARK  198  A    between atoms: _462  and  _463
REMARK  199  A    between atoms: _463  and  _464
REMARK  200  A    between atoms: _468  and  _470
REMARK  201  A    between atoms: _470  and  _471
REMARK  202  A    between atoms: _470  and  _473
REMARK  203  A    between atoms: _473  and  _474
REMARK  204  A    between atoms: _479  and  _480
REMARK  205  A    between atoms: _482  and  _484
REMARK  206  A    between atoms: _484  and  _485
REMARK  207  A    between atoms: _487  and  _489
REMARK  208  A    between atoms: _489  and  _490
REMARK  209  A    between atoms: _489  and  _492
REMARK  210  A    between atoms: _492  and  _493
REMARK  211  A    between atoms: _496  and  _498
REMARK  212  A    between atoms: _498  and  _499
REMARK  213  A    between atoms: _498  and  _501
REMARK  214  A    between atoms: _501  and  _502
REMARK  215  A    between atoms: _507  and  _508
REMARK  216  A    between atoms: _510  and  _512
REMARK  217  A    between atoms: _512  and  _513
REMARK  218  A    between atoms: _512  and  _515
REMARK  219  A    between atoms: _515  and  _516
REMARK                            x       y       z     vdW  Elec       q    Type
REMARK                         _______ _______ _______ _____ _____    ______ ____
ROOT
ATOM      1  CB  HIS A   1      12.622  59.386  -3.415  0.00  0.00    +0.072 C 
ENDROOT
BRANCH   1   2
ATOM      2  CG  HIS A   1      13.437  60.263  -2.509  0.00  0.00    +0.082 A 
ATOM      3  ND1 HIS A   1      14.204  59.757  -1.477  0.00  0.00    -0.227 NA
ATOM      4  CE1 HIS A   1      14.813  60.755  -0.858  0.00  0.00    +0.199 A 
ATOM      5  NE2 HIS A   1      14.472  61.887  -1.453  0.00  0.00    -0.221 NA
ATOM      6  CD2 HIS A   1      13.617  61.603  -2.491  0.00  0.00    +0.115 A 
ENDBRANCH   1   2
BRANCH   1   7
ATOM      7  CA  HIS A   1      13.350  58.981  -4.702  0.00  0.00    +0.139 C 
BRANCH   7   8
ATOM      8  N   HIS A   1      14.390  57.950  -4.481  0.00  0.00    -0.239 NA
ATOM      9  H   HIS A   1      14.653  57.659  -3.518  0.00  0.00    +0.142 HD
ENDBRANCH   7   8
BRANCH   7  10
ATOM     10  C   HIS A   1      13.897  60.214  -5.440  0.00  0.00    +0.224 C 
ATOM     11  O   HIS A   1      13.144  60.943  -6.093  0.00  0.00    -0.287 OA
ENDBRANCH   7  10
ENDBRANCH   1   7
TORSDOF 4
REMARK  Name = ../refined-set-2016/2vwl/2vwl_pocket.pdb
REMARK  219 active torsions:
REMARK  status: ('A' for Active; 'I' for Inactive)
REMARK    1  A    between atoms: _1  and  _5
REMARK    2  A    between atoms: _5  and  _6
REMARK    3  A    between atoms: _5  and  _8
REMARK    4  A    between atoms: _8  and  _9
REMARK    5  A    between atoms: _12  and  _14
REMARK    6  A    between atoms: _14  and  _15
REMARK    7  A    between atoms: _14  and  _17
REMARK    8  A    between atoms: _20  and  _22
REMARK    9  A    between atoms: _22  and  _23
REMARK   10  A    between atoms: _22  and  _25
REMARK   11  A    between atoms: _25  and  _26
REMARK   12  A    between atoms: _31  and  _33
REMARK   13  A    between atoms: _33  and  _34
REMARK   14  A    between atoms: _33  and  _36
REMARK   15  A    between atoms: _36  and  _37
REMARK   16  A    between atoms: _37  and  _38
REMARK   17  A    between atoms: _43  and  _45
REMARK   18  A    between atoms: _45  and  _46
REMARK   19  A    between atoms: _45  and  _48
REMARK   20  A    between atoms: _48  and  _49
REMARK   21  A    between atoms: _52  and  _54
REMARK   22  A    between atoms: _54  and  _55
REMARK   23  A    between atoms: _54  and  _57
REMARK   24  A    between atoms: _57  and  _58
REMARK   25  A    between atoms: _58  and  _59
REMARK   26  A    between atoms: _59  and  _60
REMARK   27  A    between atoms: _60  and  _61
REMARK   28  A    between atoms: _65  and  _67
REMARK   29  A    between atoms: _67  and  _68
REMARK   30  A    between atoms: _67  and  _70
REMARK   31  A    between atoms: _70  and  _71
REMARK   32  A    between atoms: _71  and  _72
REMARK   33  A    between atoms: _75  and  _77
REMARK   34  A    between atoms: _77  and  _78
REMARK   35  A    between atoms: _77  and  _80
REMARK   36  A    between atoms: _80  and  _81
REMARK   37  A    between atoms: _84  and  _86
REMARK   38  A    between atoms: _86  and  _87
REMARK   39  A    between atoms: _86  and  _89
REMARK   40  A    between atoms: _89  and  _90
REMARK   41  A    between atoms: _95  and  _96
REMARK   42  A    between atoms: _98  and  _100
REMARK   43  A    between atoms: _100  and  _101
REMARK   44  A    between atoms: _100  and  _103
REMARK   45  A    between atoms: _103  and  _104
REMARK   46  A    between atoms: _107  and  _109
REMARK   47  A    between atoms: _109  and  _110
REMARK   48  A    between atoms: _109  and  _112
REMARK   49  A    between atoms: _112  and  _113
REMARK   50  A    between atoms: _116  and  _118
REMARK   51  A    between atoms: _118  and  _119
REMARK   52  A    between atoms: _118  and  _121
REMARK   53  A    between atoms: _124  and  _126
REMARK   54  A    between atoms: _126  and  _127
REMARK   55  A    between atoms: _126  and  _129
REMARK   56  A    between atoms: _129  and  _130
REMARK   57  A    between atoms: _130  and  _131
REMARK   58  A    between atoms: _131  and  _132
REMARK   59  A    between atoms: _141  and  _143
REMARK   60  A    between atoms: _143  and  _144
REMARK   61  A    between atoms: _143  and  _146
REMARK   62  A    between atoms: _146  and  _147
REMARK   63  A    between atoms: _152  and  _154
REMARK   64  A    between atoms: _154  and  _155
REMARK   65  A    between atoms: _154  and  _157
REMARK   66  A    between atoms: _157  and  _158
REMARK   67  A    between atoms: _158  and  _159
REMARK   68  A    between atoms: _162  and  _164
REMARK   69  A    between atoms: _164  and  _165
REMARK   70  A    between atoms: _164  and  _167
REMARK   71  A    between atoms: _167  and  _168
REMARK   72  A    between atoms: _168  and  _169
REMARK   73  A    between atoms: _169  and  _170
REMARK   74  A    between atoms: _170  and  _171
REMARK   75  A    between atoms: _175  and  _177
REMARK   76  A    between atoms: _177  and  _178
REMARK   77  A    between atoms: _177  and  _180
REMARK   78  A    between atoms: _183  and  _185
REMARK   79  A    between atoms: _185  and  _186
REMARK   80  A    between atoms: _185  and  _188
REMARK   81  A    between atoms: _188  and  _189
REMARK   82  A    between atoms: _191  and  _193
REMARK   83  A    between atoms: _193  and  _194
REMARK   84  A    between atoms: _193  and  _196
REMARK   85  A    between atoms: _196  and  _197
REMARK   86  A    between atoms: _199  and  _201
REMARK   87  A    between atoms: _201  and  _202
REMARK   88  A    between atoms: _201  and  _204
REMARK   89  A    between atoms: _204  and  _205
REMARK   90  A    between atoms: _211  and  _213
REMARK   91  A    between atoms: _213  and  _214
REMARK   92  A    between atoms: _213  and  _216
REMARK   93  A    between atoms: _216  and  _217
REMARK   94  A    between atoms: _220  and  _222
REMARK   95  A    between atoms: _222  and  _223
REMARK   96  A    between atoms: _222  and  _225
REMARK   97  A    between atoms: _225  and  _226
REMARK   98  A    between atoms: _229  and  _231
REMARK   99  A    between atoms: _231  and  _232
REMARK  100  A    between atoms: _231  and  _234
REMARK  101  A    between atoms: _234  and  _235
REMARK  102  A    between atoms: _238  and  _240
REMARK  103  A    between atoms: _240  and  _241
REMARK  104  A    between atoms: _240  and  _243
REMARK  105  A    between atoms: _243  and  _244
REMARK  106  A    between atoms: _244  and  _245
REMARK  107  A    between atoms: _247  and  _249
REMARK  108  A    between atoms: _249  and  _250
REMARK  109  A    between atoms: _249  and  _252
REMARK  110  A    between atoms: _252  and  _253
REMARK  111  A    between atoms: _259  and  _261
REMARK  112  A    between atoms: _261  and  _262
REMARK  113  A    between atoms: _261  and  _264
REMARK  114  A    between atoms: _266  and  _268
REMARK  115  A    between atoms: _268  and  _269
REMARK  116  A    between atoms: _272  and  _274
REMARK  117  A    between atoms: _274  and  _275
REMARK  118  A    between atoms: _277  and  _279
REMARK  119  A    between atoms: _279  and  _280
REMARK  120  A    between atoms: _279  and  _282
REMARK  121  A    between atoms: _282  and  _283
REMARK  122  A    between atoms: _283  and  _284
REMARK  123  A    between atoms: _287  and  _289
REMARK  124  A    between atoms: _289  and  _290
REMARK  125  A    between atoms: _289  and  _292
REMARK  126  A    between atoms: _292  and  _293
REMARK  127  A    between atoms: _296  and  _298
REMARK  128  A    between atoms: _298  and  _299
REMARK  129  A    between atoms: _302  and  _304
REMARK  130  A    between atoms: _304  and  _305
REMARK  131  A    between atoms: _304  and  _307
REMARK  132  A    between atoms: _307  and  _308
REMARK  133  A    between atoms: _308  and  _431
REMARK  134  A    between atoms: _309  and  _311
REMARK  135  A    between atoms: _311  and  _312
REMARK  136  A    between atoms: _311  and  _314
REMARK  137  A    between atoms: _314  and  _315
REMARK  138  A    between atoms: _315  and  _316
REMARK  139  A    between atoms: _321  and  _323
REMARK  140  A    between atoms: _323  and  _324
REMARK  141  A    between atoms: _326  and  _328
REMARK  142  A    between atoms: _328  and  _329
REMARK  143  A    between atoms: _328  and  _331
REMARK  144  A    between atoms: _331  and  _332
REMARK  145  A    between atoms: _335  and  _337
REMARK  146  A    between atoms: _337  and  _338
REMARK  147  A    between atoms: _337  and  _340
REMARK  148  A    between atoms: _340  and  _341
REMARK  149  A    between atoms: _343  and  _345
REMARK  150  A    between atoms: _345  and  _346
REMARK  151  A    between atoms: _348  and  _350
REMARK  152  A    between atoms: _350  and  _351
REMARK  153  A    between atoms: _353  and  _355
REMARK  154  A    between atoms: _355  and  _356
REMARK  155  A    between atoms: _355  and  _358
REMARK  156  A    between atoms: _358  and  _359
REMARK  157  A    between atoms: _364  and  _366
REMARK  158  A    between atoms: _366  and  _367
REMARK  159  A    between atoms: _366  and  _369
REMARK  160  A    between atoms: _369  and  _370
REMARK  161  A    between atoms: _373  and  _375
REMARK  162  A    between atoms: _375  and  _376
REMARK  163  A    between atoms: _375  and  _378
REMARK  164  A    between atoms: _381  and  _383
REMARK  165  A    between atoms: _383  and  _384
REMARK  166  A    between atoms: _383  and  _386
REMARK  167  A    between atoms: _386  and  _387
REMARK  168  A    between atoms: _389  and  _391
REMARK  169  A    between atoms: _391  and  _392
REMARK  170  A    between atoms: _391  and  _394
REMARK  171  A    between atoms: _394  and  _395
REMARK  172  A    between atoms: _405  and  _407
REMARK  173  A    between atoms: _407  and  _408
REMARK  174  A    between atoms: _410  and  _412
REMARK  175  A    between atoms: _412  and  _413
REMARK  176  A    between atoms: _412  and  _415
REMARK  177  A    between atoms: _415  and  _416
REMARK  178  A    between atoms: _416  and  _417
REMARK  179  A    between atoms: _420  and  _422
REMARK  180  A    between atoms: _422  and  _423
REMARK  181  A    between atoms: _425  and  _427
REMARK  182  A    between atoms: _427  and  _428
REMARK  183  A    between atoms: _427  and  _430
REMARK  184  A    between atoms: _430  and  _431
REMARK  185  A    between atoms: _432  and  _434
REMARK  186  A    between atoms: _434  and  _435
REMARK  187  A    between atoms: _438  and  _440
REMARK  188  A    between atoms: _440  and  _441
REMARK  189  A    between atoms: _440  and  _443
REMARK  190  A    between atoms: _443  and  _444
REMARK  191  A    between atoms: _444  and  _445
REMARK  192  A    between atoms: _445  and  _446
REMARK  193  A    between atoms: _455  and  _457
REMARK  194  A    between atoms: _457  and  _458
REMARK  195  A    between atoms: _457  and  _460
REMARK  196  A    between atoms: _460  and  _461
REMARK  197  A    between atoms: _461  and  _462
REMARK  198  A    between atoms: _462  and  _463
REMARK  199  A    between atoms: _463  and  _464
REMARK  200  A    between atoms: _468  and  _470
REMARK  201  A    between atoms: _470  and  _471
REMARK  202  A    between atoms: _470  and  _473
REMARK  203  A    between atoms: _473  and  _474
REMARK  204  A    between atoms: _479  and  _480
REMARK  205  A    between atoms: _482  and  _484
REMARK  206  A    between atoms: _484  and  _485
REMARK  207  A    between atoms: _487  and  _489
REMARK  208  A    between atoms: _489  and  _490
REMARK  209  A    between atoms: _489  and  _492
REMARK  210  A    between atoms: _492  and  _493
REMARK  211  A    between atoms: _496  and  _498
REMARK  212  A    between atoms: _498  and  _499
REMARK  213  A    between atoms: _498  and  _501
REMARK  214  A    between atoms: _501  and  _502
REMARK  215  A    between atoms: _507  and  _508
REMARK  216  A    between atoms: _510  and  _512
REMARK  217  A    between atoms: _512  and  _513
REMARK  218  A    between atoms: _512  and  _515
REMARK  219  A    between atoms: _515  and  _516
REMARK                            x       y       z     vdW  Elec       q    Type
REMARK                         _______ _______ _______ _____ _____    ______ ____
ROOT
ATOM      1  CB  GLN A   1      13.378  65.429  -8.449  0.00  0.00    +0.035 C 
ENDROOT
BRANCH   1   2
ATOM      2  CA  GLN A   1      12.649  64.818  -9.640  0.00  0.00    +0.134 C 
BRANCH   2   3
ATOM      3  N   GLN A   1      12.761  63.372  -9.577  0.00  0.00    -0.239 NA
ATOM      4  H   GLN A   1      13.646  62.931  -9.254  0.00  0.00    +0.142 HD
ENDBRANCH   2   3
BRANCH   2   5
ATOM      5  C   GLN A   1      13.057  65.373 -11.013  0.00  0.00    +0.224 C 
ATOM      6  O   GLN A   1      12.197  65.573 -11.872  0.00  0.00    -0.287 OA
ENDBRANCH   2   5
ENDBRANCH   1   2
BRANCH   1   7
ATOM      7  CG  GLN A   1      12.779  64.834  -7.164  0.00  0.00    +0.087 C 
BRANCH   7   8
ATOM      8  CD  GLN A   1      13.288  65.451  -5.892  0.00  0.00    +0.219 C 
ATOM      9  OE1 GLN A   1      13.258  64.814  -4.835  0.00  0.00    -0.275 OA
ATOM     10  NE2 GLN A   1      13.759  66.691  -5.974  0.00  0.00    -0.329 N 
ATOM     11 HE21 GLN A   1      14.124  67.166  -5.124  0.00  0.00    +0.145 HD
ATOM     12 HE22 GLN A   1      13.763  67.186  -6.888  0.00  0.00    +0.145 HD
ENDBRANCH   7   8
ENDBRANCH   1   7
TORSDOF 5
REMARK  Name = ../refined-set-2016/2vwl/2vwl_pocket.pdb
REMARK  219 active torsions:
REMARK  status: ('A' for Active; 'I' for Inactive)
REMARK    1  A    between atoms: _1  and  _5
REMARK    2  A    between atoms: _5  and  _6
REMARK    3  A    between atoms: _5  and  _8
REMARK    4  A    between atoms: _8  and  _9
REMARK    5  A    between atoms: _12  and  _14
REMARK    6  A    between atoms: _14  and  _15
REMARK    7  A    between atoms: _14  and  _17
REMARK    8  A    between atoms: _20  and  _22
REMARK    9  A    between atoms: _22  and  _23
REMARK   10  A    between atoms: _22  and  _25
REMARK   11  A    between atoms: _25  and  _26
REMARK   12  A    between atoms: _31  and  _33
REMARK   13  A    between atoms: _33  and  _34
REMARK   14  A    between atoms: _33  and  _36
REMARK   15  A    between atoms: _36  and  _37
REMARK   16  A    between atoms: _37  and  _38
REMARK   17  A    between atoms: _43  and  _45
REMARK   18  A    between atoms: _45  and  _46
REMARK   19  A    between atoms: _45  and  _48
REMARK   20  A    between atoms: _48  and  _49
REMARK   21  A    between atoms: _52  and  _54
REMARK   22  A    between atoms: _54  and  _55
REMARK   23  A    between atoms: _54  and  _57
REMARK   24  A    between atoms: _57  and  _58
REMARK   25  A    between atoms: _58  and  _59
REMARK   26  A    between atoms: _59  and  _60
REMARK   27  A    between atoms: _60  and  _61
REMARK   28  A    between atoms: _65  and  _67
REMARK   29  A    between atoms: _67  and  _68
REMARK   30  A    between atoms: _67  and  _70
REMARK   31  A    between atoms: _70  and  _71
REMARK   32  A    between atoms: _71  and  _72
REMARK   33  A    between atoms: _75  and  _77
REMARK   34  A    between atoms: _77  and  _78
REMARK   35  A    between atoms: _77  and  _80
REMARK   36  A    between atoms: _80  and  _81
REMARK   37  A    between atoms: _84  and  _86
REMARK   38  A    between atoms: _86  and  _87
REMARK   39  A    between atoms: _86  and  _89
REMARK   40  A    between atoms: _89  and  _90
REMARK   41  A    between atoms: _95  and  _96
REMARK   42  A    between atoms: _98  and  _100
REMARK   43  A    between atoms: _100  and  _101
REMARK   44  A    between atoms: _100  and  _103
REMARK   45  A    between atoms: _103  and  _104
REMARK   46  A    between atoms: _107  and  _109
REMARK   47  A    between atoms: _109  and  _110
REMARK   48  A    between atoms: _109  and  _112
REMARK   49  A    between atoms: _112  and  _113
REMARK   50  A    between atoms: _116  and  _118
REMARK   51  A    between atoms: _118  and  _119
REMARK   52  A    between atoms: _118  and  _121
REMARK   53  A    between atoms: _124  and  _126
REMARK   54  A    between atoms: _126  and  _127
REMARK   55  A    between atoms: _126  and  _129
REMARK   56  A    between atoms: _129  and  _130
REMARK   57  A    between atoms: _130  and  _131
REMARK   58  A    between atoms: _131  and  _132
REMARK   59  A    between atoms: _141  and  _143
REMARK   60  A    between atoms: _143  and  _144
REMARK   61  A    between atoms: _143  and  _146
REMARK   62  A    between atoms: _146  and  _147
REMARK   63  A    between atoms: _152  and  _154
REMARK   64  A    between atoms: _154  and  _155
REMARK   65  A    between atoms: _154  and  _157
REMARK   66  A    between atoms: _157  and  _158
REMARK   67  A    between atoms: _158  and  _159
REMARK   68  A    between atoms: _162  and  _164
REMARK   69  A    between atoms: _164  and  _165
REMARK   70  A    between atoms: _164  and  _167
REMARK   71  A    between atoms: _167  and  _168
REMARK   72  A    between atoms: _168  and  _169
REMARK   73  A    between atoms: _169  and  _170
REMARK   74  A    between atoms: _170  and  _171
REMARK   75  A    between atoms: _175  and  _177
REMARK   76  A    between atoms: _177  and  _178
REMARK   77  A    between atoms: _177  and  _180
REMARK   78  A    between atoms: _183  and  _185
REMARK   79  A    between atoms: _185  and  _186
REMARK   80  A    between atoms: _185  and  _188
REMARK   81  A    between atoms: _188  and  _189
REMARK   82  A    between atoms: _191  and  _193
REMARK   83  A    between atoms: _193  and  _194
REMARK   84  A    between atoms: _193  and  _196
REMARK   85  A    between atoms: _196  and  _197
REMARK   86  A    between atoms: _199  and  _201
REMARK   87  A    between atoms: _201  and  _202
REMARK   88  A    between atoms: _201  and  _204
REMARK   89  A    between atoms: _204  and  _205
REMARK   90  A    between atoms: _211  and  _213
REMARK   91  A    between atoms: _213  and  _214
REMARK   92  A    between atoms: _213  and  _216
REMARK   93  A    between atoms: _216  and  _217
REMARK   94  A    between atoms: _220  and  _222
REMARK   95  A    between atoms: _222  and  _223
REMARK   96  A    between atoms: _222  and  _225
REMARK   97  A    between atoms: _225  and  _226
REMARK   98  A    between atoms: _229  and  _231
REMARK   99  A    between atoms: _231  and  _232
REMARK  100  A    between atoms: _231  and  _234
REMARK  101  A    between atoms: _234  and  _235
REMARK  102  A    between atoms: _238  and  _240
REMARK  103  A    between atoms: _240  and  _241
REMARK  104  A    between atoms: _240  and  _243
REMARK  105  A    between atoms: _243  and  _244
REMARK  106  A    between atoms: _244  and  _245
REMARK  107  A    between atoms: _247  and  _249
REMARK  108  A    between atoms: _249  and  _250
REMARK  109  A    between atoms: _249  and  _252
REMARK  110  A    between atoms: _252  and  _253
REMARK  111  A    between atoms: _259  and  _261
REMARK  112  A    between atoms: _261  and  _262
REMARK  113  A    between atoms: _261  and  _264
REMARK  114  A    between atoms: _266  and  _268
REMARK  115  A    between atoms: _268  and  _269
REMARK  116  A    between atoms: _272  and  _274
REMARK  117  A    between atoms: _274  and  _275
REMARK  118  A    between atoms: _277  and  _279
REMARK  119  A    between atoms: _279  and  _280
REMARK  120  A    between atoms: _279  and  _282
REMARK  121  A    between atoms: _282  and  _283
REMARK  122  A    between atoms: _283  and  _284
REMARK  123  A    between atoms: _287  and  _289
REMARK  124  A    between atoms: _289  and  _290
REMARK  125  A    between atoms: _289  and  _292
REMARK  126  A    between atoms: _292  and  _293
REMARK  127  A    between atoms: _296  and  _298
REMARK  128  A    between atoms: _298  and  _299
REMARK  129  A    between atoms: _302  and  _304
REMARK  130  A    between atoms: _304  and  _305
REMARK  131  A    between atoms: _304  and  _307
REMARK  132  A    between atoms: _307  and  _308
REMARK  133  A    between atoms: _308  and  _431
REMARK  134  A    between atoms: _309  and  _311
REMARK  135  A    between atoms: _311  and  _312
REMARK  136  A    between atoms: _311  and  _314
REMARK  137  A    between atoms: _314  and  _315
REMARK  138  A    between atoms: _315  and  _316
REMARK  139  A    between atoms: _321  and  _323
REMARK  140  A    between atoms: _323  and  _324
REMARK  141  A    between atoms: _326  and  _328
REMARK  142  A    between atoms: _328  and  _329
REMARK  143  A    between atoms: _328  and  _331
REMARK  144  A    between atoms: _331  and  _332
REMARK  145  A    between atoms: _335  and  _337
REMARK  146  A    between atoms: _337  and  _338
REMARK  147  A    between atoms: _337  and  _340
REMARK  148  A    between atoms: _340  and  _341
REMARK  149  A    between atoms: _343  and  _345
REMARK  150  A    between atoms: _345  and  _346
REMARK  151  A    between atoms: _348  and  _350
REMARK  152  A    between atoms: _350  and  _351
REMARK  153  A    between atoms: _353  and  _355
REMARK  154  A    between atoms: _355  and  _356
REMARK  155  A    between atoms: _355  and  _358
REMARK  156  A    between atoms: _358  and  _359
REMARK  157  A    between atoms: _364  and  _366
REMARK  158  A    between atoms: _366  and  _367
REMARK  159  A    between atoms: _366  and  _369
REMARK  160  A    between atoms: _369  and  _370
REMARK  161  A    between atoms: _373  and  _375
REMARK  162  A    between atoms: _375  and  _376
REMARK  163  A    between atoms: _375  and  _378
REMARK  164  A    between atoms: _381  and  _383
REMARK  165  A    between atoms: _383  and  _384
REMARK  166  A    between atoms: _383  and  _386
REMARK  167  A    between atoms: _386  and  _387
REMARK  168  A    between atoms: _389  and  _391
REMARK  169  A    between atoms: _391  and  _392
REMARK  170  A    between atoms: _391  and  _394
REMARK  171  A    between atoms: _394  and  _395
REMARK  172  A    between atoms: _405  and  _407
REMARK  173  A    between atoms: _407  and  _408
REMARK  174  A    between atoms: _410  and  _412
REMARK  175  A    between atoms: _412  and  _413
REMARK  176  A    between atoms: _412  and  _415
REMARK  177  A    between atoms: _415  and  _416
REMARK  178  A    between atoms: _416  and  _417
REMARK  179  A    between atoms: _420  and  _422
REMARK  180  A    between atoms: _422  and  _423
REMARK  181  A    between atoms: _425  and  _427
REMARK  182  A    between atoms: _427  and  _428
REMARK  183  A    between atoms: _427  and  _430
REMARK  184  A    between atoms: _430  and  _431
REMARK  185  A    between atoms: _432  and  _434
REMARK  186  A    between atoms: _434  and  _435
REMARK  187  A    between atoms: _438  and  _440
REMARK  188  A    between atoms: _440  and  _441
REMARK  189  A    between atoms: _440  and  _443
REMARK  190  A    between atoms: _443  and  _444
REMARK  191  A    between atoms: _444  and  _445
REMARK  192  A    between atoms: _445  and  _446
REMARK  193  A    between atoms: _455  and  _457
REMARK  194  A    between atoms: _457  and  _458
REMARK  195  A    between atoms: _457  and  _460
REMARK  196  A    between atoms: _460  and  _461
REMARK  197  A    between atoms: _461  and  _462
REMARK  198  A    between atoms: _462  and  _463
REMARK  199  A    between atoms: _463  and  _464
REMARK  200  A    between atoms: _468  and  _470
REMARK  201  A    between atoms: _470  and  _471
REMARK  202  A    between atoms: _470  and  _473
REMARK  203  A    between atoms: _473  and  _474
REMARK  204  A    between atoms: _479  and  _480
REMARK  205  A    between atoms: _482  and  _484
REMARK  206  A    between atoms: _484  and  _485
REMARK  207  A    between atoms: _487  and  _489
REMARK  208  A    between atoms: _489  and  _490
REMARK  209  A    between atoms: _489  and  _492
REMARK  210  A    between atoms: _492  and  _493
REMARK  211  A    between atoms: _496  and  _498
REMARK  212  A    between atoms: _498  and  _499
REMARK  213  A    between atoms: _498  and  _501
REMARK  214  A    between atoms: _501  and  _502
REMARK  215  A    between atoms: _507  and  _508
REMARK  216  A    between atoms: _510  and  _512
REMARK  217  A    between atoms: _512  and  _513
REMARK  218  A    between atoms: _512  and  _515
REMARK  219  A    between atoms: _515  and  _516
REMARK                            x       y       z     vdW  Elec       q    Type
REMARK                         _______ _______ _______ _____ _____    ______ ____
ROOT
ATOM      1  C   GLU A   3       4.506  53.995  -0.085  0.00  0.00    +0.241 C 
ATOM      2  O   GLU A   3       3.889  54.399   0.915  0.00  0.00    -0.273 OA
ATOM      3  N   THR A   4       5.719  53.437  -0.020  0.00  0.00    -0.295 N 
ATOM      4  H   THR A   4       6.233  53.236  -0.901  0.00  0.00    +0.150 HD
ENDROOT
BRANCH   3   5
ATOM      5  CA  THR A   4       6.340  53.103   1.260  0.00  0.00    +0.176 C 
BRANCH   5   6
ATOM      6  C   THR A   4       7.663  53.814   1.522  0.00  0.00    +0.243 C 
ATOM      7  O   THR A   4       8.130  53.860   2.675  0.00  0.00    -0.273 OA
ATOM      8  N   TYR A   5       8.268  54.361   0.480  0.00  0.00    -0.297 N 
ATOM      9  H   TYR A   5       7.756  54.447  -0.421  0.00  0.00    +0.150 HD
BRANCH   8  10
ATOM     10  CA  TYR A   5       9.676  54.858   0.576  0.00  0.00    +0.153 C 
BRANCH  10  11
ATOM     11  C   TYR A   5      10.681  53.780   1.023  0.00  0.00    +0.241 C 
ATOM     12  O   TYR A   5      11.799  54.081   1.404  0.00  0.00    -0.273 OA
ATOM     13  N   ASP A   6      10.295  52.511   0.902  0.00  0.00    -0.298 N 
ATOM     14  H   ASP A   6       9.342  52.304   0.542  0.00  0.00    +0.150 HD
BRANCH  13  15
ATOM     15  CA  ASP A   6      11.161  51.421   1.256  0.00  0.00    +0.148 C 
BRANCH  15  16
ATOM     16  C   ASP A   6      12.170  51.244   0.126  0.00  0.00    +0.227 C 
ATOM     17  O   ASP A   6      11.869  51.631  -1.020  0.00  0.00    -0.286 OA
ENDBRANCH  15  16
BRANCH  15  18
ATOM     18  CB  ASP A   6      10.330  50.135   1.450  0.00  0.00    +0.142 C 
BRANCH  18  19
ATOM     19  CG  ASP A   6      11.011  49.125   2.357  0.00  0.00    +0.367 C 
ATOM     20  OD2 ASP A   6      12.137  49.422   2.857  0.00  0.00    -0.246 OA
ATOM     21  OD1 ASP A   6      10.418  48.019   2.549  0.00  0.00    -0.246 OA
ENDBRANCH  18  19
ENDBRANCH  15  18
ENDBRANCH  13  15
ENDBRANCH  10  11
BRANCH  10  22
ATOM     22  CB  TYR A   5       9.768  56.130   1.432  0.00  0.00    +0.055 C 
BRANCH  22  23
ATOM     23  CG  TYR A   5       9.609  57.396   0.602  0.00  0.00    -0.020 A 
ATOM     24  CD2 TYR A   5      10.674  58.250   0.387  0.00  0.00    -0.001 A 
ATOM     25  CE2 TYR A   5      10.511  59.426  -0.376  0.00  0.00    +0.036 A 
ATOM     26  CZ  TYR A   5       9.259  59.707  -0.928  0.00  0.00    +0.134 A 
ATOM     27  CE1 TYR A   5       8.202  58.859  -0.727  0.00  0.00    +0.036 A 
ATOM     28  CD1 TYR A   5       8.363  57.723   0.035  0.00  0.00    -0.001 A 
BRANCH  26  29
ATOM     29  OH  TYR A   5       9.059  60.836  -1.691  0.00  0.00    -0.506 OA
ATOM     30  HH  TYR A   5       9.258  61.639  -1.148  0.00  0.00    +0.292 HD
ENDBRANCH  26  29
ENDBRANCH  22  23
ENDBRANCH  10  22
ENDBRANCH   8  10
ENDBRANCH   5   6
BRANCH   5  31
ATOM     31  CB  THR A   4       6.647  51.608   1.358  0.00  0.00    +0.137 C 
ATOM     32  CG2 THR A   4       5.341  50.768   1.221  0.00  0.00    +0.034 C 
BRANCH  31  33
ATOM     33  OG1 THR A   4       7.557  51.228   0.323  0.00  0.00    -0.382 OA
ATOM     34  HG1 THR A   4       7.750  50.260   0.394  0.00  0.00    +0.210 HD
ENDBRANCH  31  33
ENDBRANCH   5  31
ENDBRANCH   3   5
BRANCH   1  35
ATOM     35  CA  GLU A   3       3.928  54.155  -1.495  0.00  0.00    +0.149 C 
BRANCH  35  38
ATOM     36  C   LYS A   2       5.674  55.718  -2.228  0.00  0.00    +0.241 C 
ATOM     37  O   LYS A   2       5.423  56.508  -1.330  0.00  0.00    -0.273 OA
ATOM     38  N   GLU A   3       4.978  54.595  -2.438  0.00  0.00    -0.297 N 
ATOM     39  H   GLU A   3       5.180  54.020  -3.281  0.00  0.00    +0.150 HD
BRANCH  36  40
ATOM     40  CA  LYS A   2       6.813  56.032  -3.169  0.00  0.00    +0.149 C 
BRANCH  40  43
ATOM     41  C   THR A   1       7.842  53.856  -3.424  0.00  0.00    +0.241 C 
ATOM     42  O   THR A   1       8.176  53.806  -2.241  0.00  0.00    -0.274 OA
ATOM     43  N   LYS A   2       7.226  54.901  -3.968  0.00  0.00    -0.297 N 
ATOM     44  H   LYS A   2       7.037  54.905  -4.991  0.00  0.00    +0.150 HD
BRANCH  41  45
ATOM     45  CA  THR A   1       8.148  52.708  -4.355  0.00  0.00    +0.172 C 
BRANCH  45  46
ATOM     46  N   THR A   1       9.446  52.167  -3.931  0.00  0.00    -0.236 NA
ATOM     47  H   THR A   1       9.739  52.257  -2.937  0.00  0.00    +0.142 HD
ENDBRANCH  45  46
BRANCH  45  48
ATOM     48  CB  THR A   1       6.984  51.671  -4.236  0.00  0.00    +0.135 C 
ATOM     49  CG2 THR A   1       7.036  50.998  -2.909  0.00  0.00    +0.034 C 
BRANCH  48  50
ATOM     50  OG1 THR A   1       5.727  52.352  -4.274  0.00  0.00    -0.383 OA
ATOM     51  HG1 THR A   1       4.993  51.692  -4.198  0.00  0.00    +0.210 HD
ENDBRANCH  48  50
ENDBRANCH  45  48
ENDBRANCH  41  45
ENDBRANCH  40  43
BRANCH  40  52
ATOM     52  CB  LYS A   2       6.400  57.197  -4.071  0.00  0.00    +0.029 C 
BRANCH  52  53
ATOM     53  CG  LYS A   2       7.549  58.023  -4.605  0.00  0.00    +0.000 C 
BRANCH  53  54
ATOM     54  CD  LYS A   2       6.975  59.224  -5.331  0.00  0.00    -0.024 C 
BRANCH  54  55
ATOM     55  CE  LYS A   2       8.061  60.112  -5.963  0.00  0.00    -0.086 C 
BRANCH  55  56
ATOM     56  NZ  LYS A   2       7.441  60.952  -7.078  0.00  0.00    +0.380 N 
ATOM     57  HZ1 LYS A   2       6.688  61.550  -6.682  0.00  0.00    -0.089 HD
ATOM     58  HZ2 LYS A   2       8.174  61.553  -7.506  0.00  0.00    -0.089 HD
ATOM     59  HZ3 LYS A   2       7.040  60.323  -7.802  0.00  0.00    -0.089 HD
ENDBRANCH  55  56
ENDBRANCH  54  55
ENDBRANCH  53  54
ENDBRANCH  52  53
ENDBRANCH  40  52
ENDBRANCH  36  40
ENDBRANCH  35  38
BRANCH  35  60
ATOM     60  CB  GLU A   3       3.335  52.825  -1.951  0.00  0.00    +0.041 C 
BRANCH  60  61
ATOM     61  CG  GLU A   3       2.456  52.146  -0.914  0.00  0.00    +0.116 C 
BRANCH  61  62
ATOM     62  CD  GLU A   3       1.932  50.785  -1.399  0.00  0.00    +0.365 C 
ATOM     63  OE2 GLU A   3       2.322  49.743  -0.825  0.00  0.00    -0.246 OA
ATOM     64  OE1 GLU A   3       1.135  50.772  -2.360  0.00  0.00    -0.246 OA
ENDBRANCH  61  62
ENDBRANCH  60  61
ENDBRANCH  35  60
ENDBRANCH   1  35
TORSDOF 29
REMARK  Name = ../refined-set-2016/2vwl/2vwl_pocket.pdb
REMARK  219 active torsions:
REMARK  status: ('A' for Active; 'I' for Inactive)
REMARK    1  A    between atoms: _1  and  _5
REMARK    2  A    between atoms: _5  and  _6
REMARK    3  A    between atoms: _5  and  _8
REMARK    4  A    between atoms: _8  and  _9
REMARK    5  A    between atoms: _12  and  _14
REMARK    6  A    between atoms: _14  and  _15
REMARK    7  A    between atoms: _14  and  _17
REMARK    8  A    between atoms: _20  and  _22
REMARK    9  A    between atoms: _22  and  _23
REMARK   10  A    between atoms: _22  and  _25
REMARK   11  A    between atoms: _25  and  _26
REMARK   12  A    between atoms: _31  and  _33
REMARK   13  A    between atoms: _33  and  _34
REMARK   14  A    between atoms: _33  and  _36
REMARK   15  A    between atoms: _36  and  _37
REMARK   16  A    between atoms: _37  and  _38
REMARK   17  A    between atoms: _43  and  _45
REMARK   18  A    between atoms: _45  and  _46
REMARK   19  A    between atoms: _45  and  _48
REMARK   20  A    between atoms: _48  and  _49
REMARK   21  A    between atoms: _52  and  _54
REMARK   22  A    between atoms: _54  and  _55
REMARK   23  A    between atoms: _54  and  _57
REMARK   24  A    between atoms: _57  and  _58
REMARK   25  A    between atoms: _58  and  _59
REMARK   26  A    between atoms: _59  and  _60
REMARK   27  A    between atoms: _60  and  _61
REMARK   28  A    between atoms: _65  and  _67
REMARK   29  A    between atoms: _67  and  _68
REMARK   30  A    between atoms: _67  and  _70
REMARK   31  A    between atoms: _70  and  _71
REMARK   32  A    between atoms: _71  and  _72
REMARK   33  A    between atoms: _75  and  _77
REMARK   34  A    between atoms: _77  and  _78
REMARK   35  A    between atoms: _77  and  _80
REMARK   36  A    between atoms: _80  and  _81
REMARK   37  A    between atoms: _84  and  _86
REMARK   38  A    between atoms: _86  and  _87
REMARK   39  A    between atoms: _86  and  _89
REMARK   40  A    between atoms: _89  and  _90
REMARK   41  A    between atoms: _95  and  _96
REMARK   42  A    between atoms: _98  and  _100
REMARK   43  A    between atoms: _100  and  _101
REMARK   44  A    between atoms: _100  and  _103
REMARK   45  A    between atoms: _103  and  _104
REMARK   46  A    between atoms: _107  and  _109
REMARK   47  A    between atoms: _109  and  _110
REMARK   48  A    between atoms: _109  and  _112
REMARK   49  A    between atoms: _112  and  _113
REMARK   50  A    between atoms: _116  and  _118
REMARK   51  A    between atoms: _118  and  _119
REMARK   52  A    between atoms: _118  and  _121
REMARK   53  A    between atoms: _124  and  _126
REMARK   54  A    between atoms: _126  and  _127
REMARK   55  A    between atoms: _126  and  _129
REMARK   56  A    between atoms: _129  and  _130
REMARK   57  A    between atoms: _130  and  _131
REMARK   58  A    between atoms: _131  and  _132
REMARK   59  A    between atoms: _141  and  _143
REMARK   60  A    between atoms: _143  and  _144
REMARK   61  A    between atoms: _143  and  _146
REMARK   62  A    between atoms: _146  and  _147
REMARK   63  A    between atoms: _152  and  _154
REMARK   64  A    between atoms: _154  and  _155
REMARK   65  A    between atoms: _154  and  _157
REMARK   66  A    between atoms: _157  and  _158
REMARK   67  A    between atoms: _158  and  _159
REMARK   68  A    between atoms: _162  and  _164
REMARK   69  A    between atoms: _164  and  _165
REMARK   70  A    between atoms: _164  and  _167
REMARK   71  A    between atoms: _167  and  _168
REMARK   72  A    between atoms: _168  and  _169
REMARK   73  A    between atoms: _169  and  _170
REMARK   74  A    between atoms: _170  and  _171
REMARK   75  A    between atoms: _175  and  _177
REMARK   76  A    between atoms: _177  and  _178
REMARK   77  A    between atoms: _177  and  _180
REMARK   78  A    between atoms: _183  and  _185
REMARK   79  A    between atoms: _185  and  _186
REMARK   80  A    between atoms: _185  and  _188
REMARK   81  A    between atoms: _188  and  _189
REMARK   82  A    between atoms: _191  and  _193
REMARK   83  A    between atoms: _193  and  _194
REMARK   84  A    between atoms: _193  and  _196
REMARK   85  A    between atoms: _196  and  _197
REMARK   86  A    between atoms: _199  and  _201
REMARK   87  A    between atoms: _201  and  _202
REMARK   88  A    between atoms: _201  and  _204
REMARK   89  A    between atoms: _204  and  _205
REMARK   90  A    between atoms: _211  and  _213
REMARK   91  A    between atoms: _213  and  _214
REMARK   92  A    between atoms: _213  and  _216
REMARK   93  A    between atoms: _216  and  _217
REMARK   94  A    between atoms: _220  and  _222
REMARK   95  A    between atoms: _222  and  _223
REMARK   96  A    between atoms: _222  and  _225
REMARK   97  A    between atoms: _225  and  _226
REMARK   98  A    between atoms: _229  and  _231
REMARK   99  A    between atoms: _231  and  _232
REMARK  100  A    between atoms: _231  and  _234
REMARK  101  A    between atoms: _234  and  _235
REMARK  102  A    between atoms: _238  and  _240
REMARK  103  A    between atoms: _240  and  _241
REMARK  104  A    between atoms: _240  and  _243
REMARK  105  A    between atoms: _243  and  _244
REMARK  106  A    between atoms: _244  and  _245
REMARK  107  A    between atoms: _247  and  _249
REMARK  108  A    between atoms: _249  and  _250
REMARK  109  A    between atoms: _249  and  _252
REMARK  110  A    between atoms: _252  and  _253
REMARK  111  A    between atoms: _259  and  _261
REMARK  112  A    between atoms: _261  and  _262
REMARK  113  A    between atoms: _261  and  _264
REMARK  114  A    between atoms: _266  and  _268
REMARK  115  A    between atoms: _268  and  _269
REMARK  116  A    between atoms: _272  and  _274
REMARK  117  A    between atoms: _274  and  _275
REMARK  118  A    between atoms: _277  and  _279
REMARK  119  A    between atoms: _279  and  _280
REMARK  120  A    between atoms: _279  and  _282
REMARK  121  A    between atoms: _282  and  _283
REMARK  122  A    between atoms: _283  and  _284
REMARK  123  A    between atoms: _287  and  _289
REMARK  124  A    between atoms: _289  and  _290
REMARK  125  A    between atoms: _289  and  _292
REMARK  126  A    between atoms: _292  and  _293
REMARK  127  A    between atoms: _296  and  _298
REMARK  128  A    between atoms: _298  and  _299
REMARK  129  A    between atoms: _302  and  _304
REMARK  130  A    between atoms: _304  and  _305
REMARK  131  A    between atoms: _304  and  _307
REMARK  132  A    between atoms: _307  and  _308
REMARK  133  A    between atoms: _308  and  _431
REMARK  134  A    between atoms: _309  and  _311
REMARK  135  A    between atoms: _311  and  _312
REMARK  136  A    between atoms: _311  and  _314
REMARK  137  A    between atoms: _314  and  _315
REMARK  138  A    between atoms: _315  and  _316
REMARK  139  A    between atoms: _321  and  _323
REMARK  140  A    between atoms: _323  and  _324
REMARK  141  A    between atoms: _326  and  _328
REMARK  142  A    between atoms: _328  and  _329
REMARK  143  A    between atoms: _328  and  _331
REMARK  144  A    between atoms: _331  and  _332
REMARK  145  A    between atoms: _335  and  _337
REMARK  146  A    between atoms: _337  and  _338
REMARK  147  A    between atoms: _337  and  _340
REMARK  148  A    between atoms: _340  and  _341
REMARK  149  A    between atoms: _343  and  _345
REMARK  150  A    between atoms: _345  and  _346
REMARK  151  A    between atoms: _348  and  _350
REMARK  152  A    between atoms: _350  and  _351
REMARK  153  A    between atoms: _353  and  _355
REMARK  154  A    between atoms: _355  and  _356
REMARK  155  A    between atoms: _355  and  _358
REMARK  156  A    between atoms: _358  and  _359
REMARK  157  A    between atoms: _364  and  _366
REMARK  158  A    between atoms: _366  and  _367
REMARK  159  A    between atoms: _366  and  _369
REMARK  160  A    between atoms: _369  and  _370
REMARK  161  A    between atoms: _373  and  _375
REMARK  162  A    between atoms: _375  and  _376
REMARK  163  A    between atoms: _375  and  _378
REMARK  164  A    between atoms: _381  and  _383
REMARK  165  A    between atoms: _383  and  _384
REMARK  166  A    between atoms: _383  and  _386
REMARK  167  A    between atoms: _386  and  _387
REMARK  168  A    between atoms: _389  and  _391
REMARK  169  A    between atoms: _391  and  _392
REMARK  170  A    between atoms: _391  and  _394
REMARK  171  A    between atoms: _394  and  _395
REMARK  172  A    between atoms: _405  and  _407
REMARK  173  A    between atoms: _407  and  _408
REMARK  174  A    between atoms: _410  and  _412
REMARK  175  A    between atoms: _412  and  _413
REMARK  176  A    between atoms: _412  and  _415
REMARK  177  A    between atoms: _415  and  _416
REMARK  178  A    between atoms: _416  and  _417
REMARK  179  A    between atoms: _420  and  _422
REMARK  180  A    between atoms: _422  and  _423
REMARK  181  A    between atoms: _425  and  _427
REMARK  182  A    between atoms: _427  and  _428
REMARK  183  A    between atoms: _427  and  _430
REMARK  184  A    between atoms: _430  and  _431
REMARK  185  A    between atoms: _432  and  _434
REMARK  186  A    between atoms: _434  and  _435
REMARK  187  A    between atoms: _438  and  _440
REMARK  188  A    between atoms: _440  and  _441
REMARK  189  A    between atoms: _440  and  _443
REMARK  190  A    between atoms: _443  and  _444
REMARK  191  A    between atoms: _444  and  _445
REMARK  192  A    between atoms: _445  and  _446
REMARK  193  A    between atoms: _455  and  _457
REMARK  194  A    between atoms: _457  and  _458
REMARK  195  A    between atoms: _457  and  _460
REMARK  196  A    between atoms: _460  and  _461
REMARK  197  A    between atoms: _461  and  _462
REMARK  198  A    between atoms: _462  and  _463
REMARK  199  A    between atoms: _463  and  _464
REMARK  200  A    between atoms: _468  and  _470
REMARK  201  A    between atoms: _470  and  _471
REMARK  202  A    between atoms: _470  and  _473
REMARK  203  A    between atoms: _473  and  _474
REMARK  204  A    between atoms: _479  and  _480
REMARK  205  A    between atoms: _482  and  _484
REMARK  206  A    between atoms: _484  and  _485
REMARK  207  A    between atoms: _487  and  _489
REMARK  208  A    between atoms: _489  and  _490
REMARK  209  A    between atoms: _489  and  _492
REMARK  210  A    between atoms: _492  and  _493
REMARK  211  A    between atoms: _496  and  _498
REMARK  212  A    between atoms: _498  and  _499
REMARK  213  A    between atoms: _498  and  _501
REMARK  214  A    between atoms: _501  and  _502
REMARK  215  A    between atoms: _507  and  _508
REMARK  216  A    between atoms: _510  and  _512
REMARK  217  A    between atoms: _512  and  _513
REMARK  218  A    between atoms: _512  and  _515
REMARK  219  A    between atoms: _515  and  _516
REMARK                            x       y       z     vdW  Elec       q    Type
REMARK                         _______ _______ _______ _____ _____    ______ ____
ROOT
ATOM      1  CA  ASP A   1      15.242  54.157  -1.099  0.00  0.00    +0.144 C 
ENDROOT
BRANCH   1   2
ATOM      2  N   ASP A   1      15.049  52.823  -0.501  0.00  0.00    -0.239 NA
ATOM      3  H   ASP A   1      15.090  52.717   0.533  0.00  0.00    +0.142 HD
ENDBRANCH   1   2
BRANCH   1   4
ATOM      4  C   ASP A   1      16.754  54.314  -1.331  0.00  0.00    +0.225 C 
ATOM      5  O   ASP A   1      17.467  55.003  -0.575  0.00  0.00    -0.287 OA
ENDBRANCH   1   4
BRANCH   1   6
ATOM      6  CB  ASP A   1      14.710  55.267  -0.206  0.00  0.00    +0.139 C 
BRANCH   6   7
ATOM      7  CG  ASP A   1      14.670  56.631  -0.906  0.00  0.00    +0.367 C 
ATOM      8  OD2 ASP A   1      14.421  57.652  -0.212  0.00  0.00    -0.246 OA
ATOM      9  OD1 ASP A   1      14.893  56.675  -2.148  0.00  0.00    -0.246 OA
ENDBRANCH   6   7
ENDBRANCH   1   6
TORSDOF 4
REMARK  Name = ../refined-set-2016/2vwl/2vwl_pocket.pdb
REMARK  219 active torsions:
REMARK  status: ('A' for Active; 'I' for Inactive)
REMARK    1  A    between atoms: _1  and  _5
REMARK    2  A    between atoms: _5  and  _6
REMARK    3  A    between atoms: _5  and  _8
REMARK    4  A    between atoms: _8  and  _9
REMARK    5  A    between atoms: _12  and  _14
REMARK    6  A    between atoms: _14  and  _15
REMARK    7  A    between atoms: _14  and  _17
REMARK    8  A    between atoms: _20  and  _22
REMARK    9  A    between atoms: _22  and  _23
REMARK   10  A    between atoms: _22  and  _25
REMARK   11  A    between atoms: _25  and  _26
REMARK   12  A    between atoms: _31  and  _33
REMARK   13  A    between atoms: _33  and  _34
REMARK   14  A    between atoms: _33  and  _36
REMARK   15  A    between atoms: _36  and  _37
REMARK   16  A    between atoms: _37  and  _38
REMARK   17  A    between atoms: _43  and  _45
REMARK   18  A    between atoms: _45  and  _46
REMARK   19  A    between atoms: _45  and  _48
REMARK   20  A    between atoms: _48  and  _49
REMARK   21  A    between atoms: _52  and  _54
REMARK   22  A    between atoms: _54  and  _55
REMARK   23  A    between atoms: _54  and  _57
REMARK   24  A    between atoms: _57  and  _58
REMARK   25  A    between atoms: _58  and  _59
REMARK   26  A    between atoms: _59  and  _60
REMARK   27  A    between atoms: _60  and  _61
REMARK   28  A    between atoms: _65  and  _67
REMARK   29  A    between atoms: _67  and  _68
REMARK   30  A    between atoms: _67  and  _70
REMARK   31  A    between atoms: _70  and  _71
REMARK   32  A    between atoms: _71  and  _72
REMARK   33  A    between atoms: _75  and  _77
REMARK   34  A    between atoms: _77  and  _78
REMARK   35  A    between atoms: _77  and  _80
REMARK   36  A    between atoms: _80  and  _81
REMARK   37  A    between atoms: _84  and  _86
REMARK   38  A    between atoms: _86  and  _87
REMARK   39  A    between atoms: _86  and  _89
REMARK   40  A    between atoms: _89  and  _90
REMARK   41  A    between atoms: _95  and  _96
REMARK   42  A    between atoms: _98  and  _100
REMARK   43  A    between atoms: _100  and  _101
REMARK   44  A    between atoms: _100  and  _103
REMARK   45  A    between atoms: _103  and  _104
REMARK   46  A    between atoms: _107  and  _109
REMARK   47  A    between atoms: _109  and  _110
REMARK   48  A    between atoms: _109  and  _112
REMARK   49  A    between atoms: _112  and  _113
REMARK   50  A    between atoms: _116  and  _118
REMARK   51  A    between atoms: _118  and  _119
REMARK   52  A    between atoms: _118  and  _121
REMARK   53  A    between atoms: _124  and  _126
REMARK   54  A    between atoms: _126  and  _127
REMARK   55  A    between atoms: _126  and  _129
REMARK   56  A    between atoms: _129  and  _130
REMARK   57  A    between atoms: _130  and  _131
REMARK   58  A    between atoms: _131  and  _132
REMARK   59  A    between atoms: _141  and  _143
REMARK   60  A    between atoms: _143  and  _144
REMARK   61  A    between atoms: _143  and  _146
REMARK   62  A    between atoms: _146  and  _147
REMARK   63  A    between atoms: _152  and  _154
REMARK   64  A    between atoms: _154  and  _155
REMARK   65  A    between atoms: _154  and  _157
REMARK   66  A    between atoms: _157  and  _158
REMARK   67  A    between atoms: _158  and  _159
REMARK   68  A    between atoms: _162  and  _164
REMARK   69  A    between atoms: _164  and  _165
REMARK   70  A    between atoms: _164  and  _167
REMARK   71  A    between atoms: _167  and  _168
REMARK   72  A    between atoms: _168  and  _169
REMARK   73  A    between atoms: _169  and  _170
REMARK   74  A    between atoms: _170  and  _171
REMARK   75  A    between atoms: _175  and  _177
REMARK   76  A    between atoms: _177  and  _178
REMARK   77  A    between atoms: _177  and  _180
REMARK   78  A    between atoms: _183  and  _185
REMARK   79  A    between atoms: _185  and  _186
REMARK   80  A    between atoms: _185  and  _188
REMARK   81  A    between atoms: _188  and  _189
REMARK   82  A    between atoms: _191  and  _193
REMARK   83  A    between atoms: _193  and  _194
REMARK   84  A    between atoms: _193  and  _196
REMARK   85  A    between atoms: _196  and  _197
REMARK   86  A    between atoms: _199  and  _201
REMARK   87  A    between atoms: _201  and  _202
REMARK   88  A    between atoms: _201  and  _204
REMARK   89  A    between atoms: _204  and  _205
REMARK   90  A    between atoms: _211  and  _213
REMARK   91  A    between atoms: _213  and  _214
REMARK   92  A    between atoms: _213  and  _216
REMARK   93  A    between atoms: _216  and  _217
REMARK   94  A    between atoms: _220  and  _222
REMARK   95  A    between atoms: _222  and  _223
REMARK   96  A    between atoms: _222  and  _225
REMARK   97  A    between atoms: _225  and  _226
REMARK   98  A    between atoms: _229  and  _231
REMARK   99  A    between atoms: _231  and  _232
REMARK  100  A    between atoms: _231  and  _234
REMARK  101  A    between atoms: _234  and  _235
REMARK  102  A    between atoms: _238  and  _240
REMARK  103  A    between atoms: _240  and  _241
REMARK  104  A    between atoms: _240  and  _243
REMARK  105  A    between atoms: _243  and  _244
REMARK  106  A    between atoms: _244  and  _245
REMARK  107  A    between atoms: _247  and  _249
REMARK  108  A    between atoms: _249  and  _250
REMARK  109  A    between atoms: _249  and  _252
REMARK  110  A    between atoms: _252  and  _253
REMARK  111  A    between atoms: _259  and  _261
REMARK  112  A    between atoms: _261  and  _262
REMARK  113  A    between atoms: _261  and  _264
REMARK  114  A    between atoms: _266  and  _268
REMARK  115  A    between atoms: _268  and  _269
REMARK  116  A    between atoms: _272  and  _274
REMARK  117  A    between atoms: _274  and  _275
REMARK  118  A    between atoms: _277  and  _279
REMARK  119  A    between atoms: _279  and  _280
REMARK  120  A    between atoms: _279  and  _282
REMARK  121  A    between atoms: _282  and  _283
REMARK  122  A    between atoms: _283  and  _284
REMARK  123  A    between atoms: _287  and  _289
REMARK  124  A    between atoms: _289  and  _290
REMARK  125  A    between atoms: _289  and  _292
REMARK  126  A    between atoms: _292  and  _293
REMARK  127  A    between atoms: _296  and  _298
REMARK  128  A    between atoms: _298  and  _299
REMARK  129  A    between atoms: _302  and  _304
REMARK  130  A    between atoms: _304  and  _305
REMARK  131  A    between atoms: _304  and  _307
REMARK  132  A    between atoms: _307  and  _308
REMARK  133  A    between atoms: _308  and  _431
REMARK  134  A    between atoms: _309  and  _311
REMARK  135  A    between atoms: _311  and  _312
REMARK  136  A    between atoms: _311  and  _314
REMARK  137  A    between atoms: _314  and  _315
REMARK  138  A    between atoms: _315  and  _316
REMARK  139  A    between atoms: _321  and  _323
REMARK  140  A    between atoms: _323  and  _324
REMARK  141  A    between atoms: _326  and  _328
REMARK  142  A    between atoms: _328  and  _329
REMARK  143  A    between atoms: _328  and  _331
REMARK  144  A    between atoms: _331  and  _332
REMARK  145  A    between atoms: _335  and  _337
REMARK  146  A    between atoms: _337  and  _338
REMARK  147  A    between atoms: _337  and  _340
REMARK  148  A    between atoms: _340  and  _341
REMARK  149  A    between atoms: _343  and  _345
REMARK  150  A    between atoms: _345  and  _346
REMARK  151  A    between atoms: _348  and  _350
REMARK  152  A    between atoms: _350  and  _351
REMARK  153  A    between atoms: _353  and  _355
REMARK  154  A    between atoms: _355  and  _356
REMARK  155  A    between atoms: _355  and  _358
REMARK  156  A    between atoms: _358  and  _359
REMARK  157  A    between atoms: _364  and  _366
REMARK  158  A    between atoms: _366  and  _367
REMARK  159  A    between atoms: _366  and  _369
REMARK  160  A    between atoms: _369  and  _370
REMARK  161  A    between atoms: _373  and  _375
REMARK  162  A    between atoms: _375  and  _376
REMARK  163  A    between atoms: _375  and  _378
REMARK  164  A    between atoms: _381  and  _383
REMARK  165  A    between atoms: _383  and  _384
REMARK  166  A    between atoms: _383  and  _386
REMARK  167  A    between atoms: _386  and  _387
REMARK  168  A    between atoms: _389  and  _391
REMARK  169  A    between atoms: _391  and  _392
REMARK  170  A    between atoms: _391  and  _394
REMARK  171  A    between atoms: _394  and  _395
REMARK  172  A    between atoms: _405  and  _407
REMARK  173  A    between atoms: _407  and  _408
REMARK  174  A    between atoms: _410  and  _412
REMARK  175  A    between atoms: _412  and  _413
REMARK  176  A    between atoms: _412  and  _415
REMARK  177  A    between atoms: _415  and  _416
REMARK  178  A    between atoms: _416  and  _417
REMARK  179  A    between atoms: _420  and  _422
REMARK  180  A    between atoms: _422  and  _423
REMARK  181  A    between atoms: _425  and  _427
REMARK  182  A    between atoms: _427  and  _428
REMARK  183  A    between atoms: _427  and  _430
REMARK  184  A    between atoms: _430  and  _431
REMARK  185  A    between atoms: _432  and  _434
REMARK  186  A    between atoms: _434  and  _435
REMARK  187  A    between atoms: _438  and  _440
REMARK  188  A    between atoms: _440  and  _441
REMARK  189  A    between atoms: _440  and  _443
REMARK  190  A    between atoms: _443  and  _444
REMARK  191  A    between atoms: _444  and  _445
REMARK  192  A    between atoms: _445  and  _446
REMARK  193  A    between atoms: _455  and  _457
REMARK  194  A    between atoms: _457  and  _458
REMARK  195  A    between atoms: _457  and  _460
REMARK  196  A    between atoms: _460  and  _461
REMARK  197  A    between atoms: _461  and  _462
REMARK  198  A    between atoms: _462  and  _463
REMARK  199  A    between atoms: _463  and  _464
REMARK  200  A    between atoms: _468  and  _470
REMARK  201  A    between atoms: _470  and  _471
REMARK  202  A    between atoms: _470  and  _473
REMARK  203  A    between atoms: _473  and  _474
REMARK  204  A    between atoms: _479  and  _480
REMARK  205  A    between atoms: _482  and  _484
REMARK  206  A    between atoms: _484  and  _485
REMARK  207  A    between atoms: _487  and  _489
REMARK  208  A    between atoms: _489  and  _490
REMARK  209  A    between atoms: _489  and  _492
REMARK  210  A    between atoms: _492  and  _493
REMARK  211  A    between atoms: _496  and  _498
REMARK  212  A    between atoms: _498  and  _499
REMARK  213  A    between atoms: _498  and  _501
REMARK  214  A    between atoms: _501  and  _502
REMARK  215  A    between atoms: _507  and  _508
REMARK  216  A    between atoms: _510  and  _512
REMARK  217  A    between atoms: _512  and  _513
REMARK  218  A    between atoms: _512  and  _515
REMARK  219  A    between atoms: _515  and  _516
REMARK                            x       y       z     vdW  Elec       q    Type
REMARK                         _______ _______ _______ _____ _____    ______ ____
ROOT
ATOM      1  CA  VAL A   1      24.666  64.138   7.897  0.00  0.00    +0.133 C 
ENDROOT
BRANCH   1   2
ATOM      2  CB  VAL A   1      23.144  64.030   8.138  0.00  0.00    +0.023 C 
ATOM      3  CG2 VAL A   1      22.675  65.110   9.115  0.00  0.00    +0.002 C 
ATOM      4  CG1 VAL A   1      22.394  64.087   6.827  0.00  0.00    +0.002 C 
ENDBRANCH   1   2
BRANCH   1   5
ATOM      5  N   VAL A   1      25.399  63.908   9.132  0.00  0.00    -0.239 NA
ATOM      6  H   VAL A   1      25.194  64.504   9.959  0.00  0.00    +0.142 HD
ENDBRANCH   1   5
BRANCH   1   7
ATOM      7  C   VAL A   1      25.079  65.501   7.293  0.00  0.00    +0.224 C 
ATOM      8  O   VAL A   1      25.439  66.458   8.016  0.00  0.00    -0.287 OA
ENDBRANCH   1   7
TORSDOF 3
REMARK  Name = ../refined-set-2016/2vwl/2vwl_pocket.pdb
REMARK  219 active torsions:
REMARK  status: ('A' for Active; 'I' for Inactive)
REMARK    1  A    between atoms: _1  and  _5
REMARK    2  A    between atoms: _5  and  _6
REMARK    3  A    between atoms: _5  and  _8
REMARK    4  A    between atoms: _8  and  _9
REMARK    5  A    between atoms: _12  and  _14
REMARK    6  A    between atoms: _14  and  _15
REMARK    7  A    between atoms: _14  and  _17
REMARK    8  A    between atoms: _20  and  _22
REMARK    9  A    between atoms: _22  and  _23
REMARK   10  A    between atoms: _22  and  _25
REMARK   11  A    between atoms: _25  and  _26
REMARK   12  A    between atoms: _31  and  _33
REMARK   13  A    between atoms: _33  and  _34
REMARK   14  A    between atoms: _33  and  _36
REMARK   15  A    between atoms: _36  and  _37
REMARK   16  A    between atoms: _37  and  _38
REMARK   17  A    between atoms: _43  and  _45
REMARK   18  A    between atoms: _45  and  _46
REMARK   19  A    between atoms: _45  and  _48
REMARK   20  A    between atoms: _48  and  _49
REMARK   21  A    between atoms: _52  and  _54
REMARK   22  A    between atoms: _54  and  _55
REMARK   23  A    between atoms: _54  and  _57
REMARK   24  A    between atoms: _57  and  _58
REMARK   25  A    between atoms: _58  and  _59
REMARK   26  A    between atoms: _59  and  _60
REMARK   27  A    between atoms: _60  and  _61
REMARK   28  A    between atoms: _65  and  _67
REMARK   29  A    between atoms: _67  and  _68
REMARK   30  A    between atoms: _67  and  _70
REMARK   31  A    between atoms: _70  and  _71
REMARK   32  A    between atoms: _71  and  _72
REMARK   33  A    between atoms: _75  and  _77
REMARK   34  A    between atoms: _77  and  _78
REMARK   35  A    between atoms: _77  and  _80
REMARK   36  A    between atoms: _80  and  _81
REMARK   37  A    between atoms: _84  and  _86
REMARK   38  A    between atoms: _86  and  _87
REMARK   39  A    between atoms: _86  and  _89
REMARK   40  A    between atoms: _89  and  _90
REMARK   41  A    between atoms: _95  and  _96
REMARK   42  A    between atoms: _98  and  _100
REMARK   43  A    between atoms: _100  and  _101
REMARK   44  A    between atoms: _100  and  _103
REMARK   45  A    between atoms: _103  and  _104
REMARK   46  A    between atoms: _107  and  _109
REMARK   47  A    between atoms: _109  and  _110
REMARK   48  A    between atoms: _109  and  _112
REMARK   49  A    between atoms: _112  and  _113
REMARK   50  A    between atoms: _116  and  _118
REMARK   51  A    between atoms: _118  and  _119
REMARK   52  A    between atoms: _118  and  _121
REMARK   53  A    between atoms: _124  and  _126
REMARK   54  A    between atoms: _126  and  _127
REMARK   55  A    between atoms: _126  and  _129
REMARK   56  A    between atoms: _129  and  _130
REMARK   57  A    between atoms: _130  and  _131
REMARK   58  A    between atoms: _131  and  _132
REMARK   59  A    between atoms: _141  and  _143
REMARK   60  A    between atoms: _143  and  _144
REMARK   61  A    between atoms: _143  and  _146
REMARK   62  A    between atoms: _146  and  _147
REMARK   63  A    between atoms: _152  and  _154
REMARK   64  A    between atoms: _154  and  _155
REMARK   65  A    between atoms: _154  and  _157
REMARK   66  A    between atoms: _157  and  _158
REMARK   67  A    between atoms: _158  and  _159
REMARK   68  A    between atoms: _162  and  _164
REMARK   69  A    between atoms: _164  and  _165
REMARK   70  A    between atoms: _164  and  _167
REMARK   71  A    between atoms: _167  and  _168
REMARK   72  A    between atoms: _168  and  _169
REMARK   73  A    between atoms: _169  and  _170
REMARK   74  A    between atoms: _170  and  _171
REMARK   75  A    between atoms: _175  and  _177
REMARK   76  A    between atoms: _177  and  _178
REMARK   77  A    between atoms: _177  and  _180
REMARK   78  A    between atoms: _183  and  _185
REMARK   79  A    between atoms: _185  and  _186
REMARK   80  A    between atoms: _185  and  _188
REMARK   81  A    between atoms: _188  and  _189
REMARK   82  A    between atoms: _191  and  _193
REMARK   83  A    between atoms: _193  and  _194
REMARK   84  A    between atoms: _193  and  _196
REMARK   85  A    between atoms: _196  and  _197
REMARK   86  A    between atoms: _199  and  _201
REMARK   87  A    between atoms: _201  and  _202
REMARK   88  A    between atoms: _201  and  _204
REMARK   89  A    between atoms: _204  and  _205
REMARK   90  A    between atoms: _211  and  _213
REMARK   91  A    between atoms: _213  and  _214
REMARK   92  A    between atoms: _213  and  _216
REMARK   93  A    between atoms: _216  and  _217
REMARK   94  A    between atoms: _220  and  _222
REMARK   95  A    between atoms: _222  and  _223
REMARK   96  A    between atoms: _222  and  _225
REMARK   97  A    between atoms: _225  and  _226
REMARK   98  A    between atoms: _229  and  _231
REMARK   99  A    between atoms: _231  and  _232
REMARK  100  A    between atoms: _231  and  _234
REMARK  101  A    between atoms: _234  and  _235
REMARK  102  A    between atoms: _238  and  _240
REMARK  103  A    between atoms: _240  and  _241
REMARK  104  A    between atoms: _240  and  _243
REMARK  105  A    between atoms: _243  and  _244
REMARK  106  A    between atoms: _244  and  _245
REMARK  107  A    between atoms: _247  and  _249
REMARK  108  A    between atoms: _249  and  _250
REMARK  109  A    between atoms: _249  and  _252
REMARK  110  A    between atoms: _252  and  _253
REMARK  111  A    between atoms: _259  and  _261
REMARK  112  A    between atoms: _261  and  _262
REMARK  113  A    between atoms: _261  and  _264
REMARK  114  A    between atoms: _266  and  _268
REMARK  115  A    between atoms: _268  and  _269
REMARK  116  A    between atoms: _272  and  _274
REMARK  117  A    between atoms: _274  and  _275
REMARK  118  A    between atoms: _277  and  _279
REMARK  119  A    between atoms: _279  and  _280
REMARK  120  A    between atoms: _279  and  _282
REMARK  121  A    between atoms: _282  and  _283
REMARK  122  A    between atoms: _283  and  _284
REMARK  123  A    between atoms: _287  and  _289
REMARK  124  A    between atoms: _289  and  _290
REMARK  125  A    between atoms: _289  and  _292
REMARK  126  A    between atoms: _292  and  _293
REMARK  127  A    between atoms: _296  and  _298
REMARK  128  A    between atoms: _298  and  _299
REMARK  129  A    between atoms: _302  and  _304
REMARK  130  A    between atoms: _304  and  _305
REMARK  131  A    between atoms: _304  and  _307
REMARK  132  A    between atoms: _307  and  _308
REMARK  133  A    between atoms: _308  and  _431
REMARK  134  A    between atoms: _309  and  _311
REMARK  135  A    between atoms: _311  and  _312
REMARK  136  A    between atoms: _311  and  _314
REMARK  137  A    between atoms: _314  and  _315
REMARK  138  A    between atoms: _315  and  _316
REMARK  139  A    between atoms: _321  and  _323
REMARK  140  A    between atoms: _323  and  _324
REMARK  141  A    between atoms: _326  and  _328
REMARK  142  A    between atoms: _328  and  _329
REMARK  143  A    between atoms: _328  and  _331
REMARK  144  A    between atoms: _331  and  _332
REMARK  145  A    between atoms: _335  and  _337
REMARK  146  A    between atoms: _337  and  _338
REMARK  147  A    between atoms: _337  and  _340
REMARK  148  A    between atoms: _340  and  _341
REMARK  149  A    between atoms: _343  and  _345
REMARK  150  A    between atoms: _345  and  _346
REMARK  151  A    between atoms: _348  and  _350
REMARK  152  A    between atoms: _350  and  _351
REMARK  153  A    between atoms: _353  and  _355
REMARK  154  A    between atoms: _355  and  _356
REMARK  155  A    between atoms: _355  and  _358
REMARK  156  A    between atoms: _358  and  _359
REMARK  157  A    between atoms: _364  and  _366
REMARK  158  A    between atoms: _366  and  _367
REMARK  159  A    between atoms: _366  and  _369
REMARK  160  A    between atoms: _369  and  _370
REMARK  161  A    between atoms: _373  and  _375
REMARK  162  A    between atoms: _375  and  _376
REMARK  163  A    between atoms: _375  and  _378
REMARK  164  A    between atoms: _381  and  _383
REMARK  165  A    between atoms: _383  and  _384
REMARK  166  A    between atoms: _383  and  _386
REMARK  167  A    between atoms: _386  and  _387
REMARK  168  A    between atoms: _389  and  _391
REMARK  169  A    between atoms: _391  and  _392
REMARK  170  A    between atoms: _391  and  _394
REMARK  171  A    between atoms: _394  and  _395
REMARK  172  A    between atoms: _405  and  _407
REMARK  173  A    between atoms: _407  and  _408
REMARK  174  A    between atoms: _410  and  _412
REMARK  175  A    between atoms: _412  and  _413
REMARK  176  A    between atoms: _412  and  _415
REMARK  177  A    between atoms: _415  and  _416
REMARK  178  A    between atoms: _416  and  _417
REMARK  179  A    between atoms: _420  and  _422
REMARK  180  A    between atoms: _422  and  _423
REMARK  181  A    between atoms: _425  and  _427
REMARK  182  A    between atoms: _427  and  _428
REMARK  183  A    between atoms: _427  and  _430
REMARK  184  A    between atoms: _430  and  _431
REMARK  185  A    between atoms: _432  and  _434
REMARK  186  A    between atoms: _434  and  _435
REMARK  187  A    between atoms: _438  and  _440
REMARK  188  A    between atoms: _440  and  _441
REMARK  189  A    between atoms: _440  and  _443
REMARK  190  A    between atoms: _443  and  _444
REMARK  191  A    between atoms: _444  and  _445
REMARK  192  A    between atoms: _445  and  _446
REMARK  193  A    between atoms: _455  and  _457
REMARK  194  A    between atoms: _457  and  _458
REMARK  195  A    between atoms: _457  and  _460
REMARK  196  A    between atoms: _460  and  _461
REMARK  197  A    between atoms: _461  and  _462
REMARK  198  A    between atoms: _462  and  _463
REMARK  199  A    between atoms: _463  and  _464
REMARK  200  A    between atoms: _468  and  _470
REMARK  201  A    between atoms: _470  and  _471
REMARK  202  A    between atoms: _470  and  _473
REMARK  203  A    between atoms: _473  and  _474
REMARK  204  A    between atoms: _479  and  _480
REMARK  205  A    between atoms: _482  and  _484
REMARK  206  A    between atoms: _484  and  _485
REMARK  207  A    between atoms: _487  and  _489
REMARK  208  A    between atoms: _489  and  _490
REMARK  209  A    between atoms: _489  and  _492
REMARK  210  A    between atoms: _492  and  _493
REMARK  211  A    between atoms: _496  and  _498
REMARK  212  A    between atoms: _498  and  _499
REMARK  213  A    between atoms: _498  and  _501
REMARK  214  A    between atoms: _501  and  _502
REMARK  215  A    between atoms: _507  and  _508
REMARK  216  A    between atoms: _510  and  _512
REMARK  217  A    between atoms: _512  and  _513
REMARK  218  A    between atoms: _512  and  _515
REMARK  219  A    between atoms: _515  and  _516
REMARK                            x       y       z     vdW  Elec       q    Type
REMARK                         _______ _______ _______ _____ _____    ______ ____
ROOT
ATOM      1  NE  ARG A   1      12.695  74.227   0.879  0.00  0.00    -0.265 N 
ATOM      2  CZ  ARG A   1      11.485  73.818   0.508  0.00  0.00    +0.342 C 
ATOM      3  NH2 ARG A   1      10.673  73.214   1.376  0.00  0.00    -0.292 N 
ATOM      4 HH21 ARG A   1      10.983  73.058   2.356  0.00  0.00    +0.255 HD
ATOM      5 HH22 ARG A   1       9.729  72.899   1.073  0.00  0.00    +0.255 HD
ATOM      6  NH1 ARG A   1      11.100  73.997  -0.753  0.00  0.00    -0.292 N 
ATOM      7 HH11 ARG A   1      10.157  73.683  -1.058  0.00  0.00    +0.255 HD
ATOM      8 HH12 ARG A   1      11.742  74.451  -1.433  0.00  0.00    +0.255 HD
ATOM      9  HE  ARG A   1      13.292  74.669   0.151  0.00  0.00    +0.259 HD
ENDROOT
BRANCH   1  10
ATOM     10  CD  ARG A   1      13.252  74.110   2.210  0.00  0.00    +0.174 C 
BRANCH  10  11
ATOM     11  CG  ARG A   1      14.748  74.094   2.105  0.00  0.00    +0.045 C 
BRANCH  11  12
ATOM     12  CB  ARG A   1      15.397  74.045   3.457  0.00  0.00    +0.029 C 
BRANCH  12  13
ATOM     13  CA  ARG A   1      16.926  74.096   3.405  0.00  0.00    +0.133 C 
BRANCH  13  14
ATOM     14  N   ARG A   1      17.472  72.965   2.632  0.00  0.00    -0.239 NA
ATOM     15  H   ARG A   1      16.814  72.307   2.168  0.00  0.00    +0.142 HD
ENDBRANCH  13  14
BRANCH  13  16
ATOM     16  C   ARG A   1      17.463  74.190   4.832  0.00  0.00    +0.224 C 
ATOM     17  O   ARG A   1      17.764  73.171   5.485  0.00  0.00    -0.287 OA
ENDBRANCH  13  16
ENDBRANCH  12  13
ENDBRANCH  11  12
ENDBRANCH  10  11
ENDBRANCH   1  10
TORSDOF 6
REMARK  Name = ../refined-set-2016/2vwl/2vwl_pocket.pdb
REMARK  219 active torsions:
REMARK  status: ('A' for Active; 'I' for Inactive)
REMARK    1  A    between atoms: _1  and  _5
REMARK    2  A    between atoms: _5  and  _6
REMARK    3  A    between atoms: _5  and  _8
REMARK    4  A    between atoms: _8  and  _9
REMARK    5  A    between atoms: _12  and  _14
REMARK    6  A    between atoms: _14  and  _15
REMARK    7  A    between atoms: _14  and  _17
REMARK    8  A    between atoms: _20  and  _22
REMARK    9  A    between atoms: _22  and  _23
REMARK   10  A    between atoms: _22  and  _25
REMARK   11  A    between atoms: _25  and  _26
REMARK   12  A    between atoms: _31  and  _33
REMARK   13  A    between atoms: _33  and  _34
REMARK   14  A    between atoms: _33  and  _36
REMARK   15  A    between atoms: _36  and  _37
REMARK   16  A    between atoms: _37  and  _38
REMARK   17  A    between atoms: _43  and  _45
REMARK   18  A    between atoms: _45  and  _46
REMARK   19  A    between atoms: _45  and  _48
REMARK   20  A    between atoms: _48  and  _49
REMARK   21  A    between atoms: _52  and  _54
REMARK   22  A    between atoms: _54  and  _55
REMARK   23  A    between atoms: _54  and  _57
REMARK   24  A    between atoms: _57  and  _58
REMARK   25  A    between atoms: _58  and  _59
REMARK   26  A    between atoms: _59  and  _60
REMARK   27  A    between atoms: _60  and  _61
REMARK   28  A    between atoms: _65  and  _67
REMARK   29  A    between atoms: _67  and  _68
REMARK   30  A    between atoms: _67  and  _70
REMARK   31  A    between atoms: _70  and  _71
REMARK   32  A    between atoms: _71  and  _72
REMARK   33  A    between atoms: _75  and  _77
REMARK   34  A    between atoms: _77  and  _78
REMARK   35  A    between atoms: _77  and  _80
REMARK   36  A    between atoms: _80  and  _81
REMARK   37  A    between atoms: _84  and  _86
REMARK   38  A    between atoms: _86  and  _87
REMARK   39  A    between atoms: _86  and  _89
REMARK   40  A    between atoms: _89  and  _90
REMARK   41  A    between atoms: _95  and  _96
REMARK   42  A    between atoms: _98  and  _100
REMARK   43  A    between atoms: _100  and  _101
REMARK   44  A    between atoms: _100  and  _103
REMARK   45  A    between atoms: _103  and  _104
REMARK   46  A    between atoms: _107  and  _109
REMARK   47  A    between atoms: _109  and  _110
REMARK   48  A    between atoms: _109  and  _112
REMARK   49  A    between atoms: _112  and  _113
REMARK   50  A    between atoms: _116  and  _118
REMARK   51  A    between atoms: _118  and  _119
REMARK   52  A    between atoms: _118  and  _121
REMARK   53  A    between atoms: _124  and  _126
REMARK   54  A    between atoms: _126  and  _127
REMARK   55  A    between atoms: _126  and  _129
REMARK   56  A    between atoms: _129  and  _130
REMARK   57  A    between atoms: _130  and  _131
REMARK   58  A    between atoms: _131  and  _132
REMARK   59  A    between atoms: _141  and  _143
REMARK   60  A    between atoms: _143  and  _144
REMARK   61  A    between atoms: _143  and  _146
REMARK   62  A    between atoms: _146  and  _147
REMARK   63  A    between atoms: _152  and  _154
REMARK   64  A    between atoms: _154  and  _155
REMARK   65  A    between atoms: _154  and  _157
REMARK   66  A    between atoms: _157  and  _158
REMARK   67  A    between atoms: _158  and  _159
REMARK   68  A    between atoms: _162  and  _164
REMARK   69  A    between atoms: _164  and  _165
REMARK   70  A    between atoms: _164  and  _167
REMARK   71  A    between atoms: _167  and  _168
REMARK   72  A    between atoms: _168  and  _169
REMARK   73  A    between atoms: _169  and  _170
REMARK   74  A    between atoms: _170  and  _171
REMARK   75  A    between atoms: _175  and  _177
REMARK   76  A    between atoms: _177  and  _178
REMARK   77  A    between atoms: _177  and  _180
REMARK   78  A    between atoms: _183  and  _185
REMARK   79  A    between atoms: _185  and  _186
REMARK   80  A    between atoms: _185  and  _188
REMARK   81  A    between atoms: _188  and  _189
REMARK   82  A    between atoms: _191  and  _193
REMARK   83  A    between atoms: _193  and  _194
REMARK   84  A    between atoms: _193  and  _196
REMARK   85  A    between atoms: _196  and  _197
REMARK   86  A    between atoms: _199  and  _201
REMARK   87  A    between atoms: _201  and  _202
REMARK   88  A    between atoms: _201  and  _204
REMARK   89  A    between atoms: _204  and  _205
REMARK   90  A    between atoms: _211  and  _213
REMARK   91  A    between atoms: _213  and  _214
REMARK   92  A    between atoms: _213  and  _216
REMARK   93  A    between atoms: _216  and  _217
REMARK   94  A    between atoms: _220  and  _222
REMARK   95  A    between atoms: _222  and  _223
REMARK   96  A    between atoms: _222  and  _225
REMARK   97  A    between atoms: _225  and  _226
REMARK   98  A    between atoms: _229  and  _231
REMARK   99  A    between atoms: _231  and  _232
REMARK  100  A    between atoms: _231  and  _234
REMARK  101  A    between atoms: _234  and  _235
REMARK  102  A    between atoms: _238  and  _240
REMARK  103  A    between atoms: _240  and  _241
REMARK  104  A    between atoms: _240  and  _243
REMARK  105  A    between atoms: _243  and  _244
REMARK  106  A    between atoms: _244  and  _245
REMARK  107  A    between atoms: _247  and  _249
REMARK  108  A    between atoms: _249  and  _250
REMARK  109  A    between atoms: _249  and  _252
REMARK  110  A    between atoms: _252  and  _253
REMARK  111  A    between atoms: _259  and  _261
REMARK  112  A    between atoms: _261  and  _262
REMARK  113  A    between atoms: _261  and  _264
REMARK  114  A    between atoms: _266  and  _268
REMARK  115  A    between atoms: _268  and  _269
REMARK  116  A    between atoms: _272  and  _274
REMARK  117  A    between atoms: _274  and  _275
REMARK  118  A    between atoms: _277  and  _279
REMARK  119  A    between atoms: _279  and  _280
REMARK  120  A    between atoms: _279  and  _282
REMARK  121  A    between atoms: _282  and  _283
REMARK  122  A    between atoms: _283  and  _284
REMARK  123  A    between atoms: _287  and  _289
REMARK  124  A    between atoms: _289  and  _290
REMARK  125  A    between atoms: _289  and  _292
REMARK  126  A    between atoms: _292  and  _293
REMARK  127  A    between atoms: _296  and  _298
REMARK  128  A    between atoms: _298  and  _299
REMARK  129  A    between atoms: _302  and  _304
REMARK  130  A    between atoms: _304  and  _305
REMARK  131  A    between atoms: _304  and  _307
REMARK  132  A    between atoms: _307  and  _308
REMARK  133  A    between atoms: _308  and  _431
REMARK  134  A    between atoms: _309  and  _311
REMARK  135  A    between atoms: _311  and  _312
REMARK  136  A    between atoms: _311  and  _314
REMARK  137  A    between atoms: _314  and  _315
REMARK  138  A    between atoms: _315  and  _316
REMARK  139  A    between atoms: _321  and  _323
REMARK  140  A    between atoms: _323  and  _324
REMARK  141  A    between atoms: _326  and  _328
REMARK  142  A    between atoms: _328  and  _329
REMARK  143  A    between atoms: _328  and  _331
REMARK  144  A    between atoms: _331  and  _332
REMARK  145  A    between atoms: _335  and  _337
REMARK  146  A    between atoms: _337  and  _338
REMARK  147  A    between atoms: _337  and  _340
REMARK  148  A    between atoms: _340  and  _341
REMARK  149  A    between atoms: _343  and  _345
REMARK  150  A    between atoms: _345  and  _346
REMARK  151  A    between atoms: _348  and  _350
REMARK  152  A    between atoms: _350  and  _351
REMARK  153  A    between atoms: _353  and  _355
REMARK  154  A    between atoms: _355  and  _356
REMARK  155  A    between atoms: _355  and  _358
REMARK  156  A    between atoms: _358  and  _359
REMARK  157  A    between atoms: _364  and  _366
REMARK  158  A    between atoms: _366  and  _367
REMARK  159  A    between atoms: _366  and  _369
REMARK  160  A    between atoms: _369  and  _370
REMARK  161  A    between atoms: _373  and  _375
REMARK  162  A    between atoms: _375  and  _376
REMARK  163  A    between atoms: _375  and  _378
REMARK  164  A    between atoms: _381  and  _383
REMARK  165  A    between atoms: _383  and  _384
REMARK  166  A    between atoms: _383  and  _386
REMARK  167  A    between atoms: _386  and  _387
REMARK  168  A    between atoms: _389  and  _391
REMARK  169  A    between atoms: _391  and  _392
REMARK  170  A    between atoms: _391  and  _394
REMARK  171  A    between atoms: _394  and  _395
REMARK  172  A    between atoms: _405  and  _407
REMARK  173  A    between atoms: _407  and  _408
REMARK  174  A    between atoms: _410  and  _412
REMARK  175  A    between atoms: _412  and  _413
REMARK  176  A    between atoms: _412  and  _415
REMARK  177  A    between atoms: _415  and  _416
REMARK  178  A    between atoms: _416  and  _417
REMARK  179  A    between atoms: _420  and  _422
REMARK  180  A    between atoms: _422  and  _423
REMARK  181  A    between atoms: _425  and  _427
REMARK  182  A    between atoms: _427  and  _428
REMARK  183  A    between atoms: _427  and  _430
REMARK  184  A    between atoms: _430  and  _431
REMARK  185  A    between atoms: _432  and  _434
REMARK  186  A    between atoms: _434  and  _435
REMARK  187  A    between atoms: _438  and  _440
REMARK  188  A    between atoms: _440  and  _441
REMARK  189  A    between atoms: _440  and  _443
REMARK  190  A    between atoms: _443  and  _444
REMARK  191  A    between atoms: _444  and  _445
REMARK  192  A    between atoms: _445  and  _446
REMARK  193  A    between atoms: _455  and  _457
REMARK  194  A    between atoms: _457  and  _458
REMARK  195  A    between atoms: _457  and  _460
REMARK  196  A    between atoms: _460  and  _461
REMARK  197  A    between atoms: _461  and  _462
REMARK  198  A    between atoms: _462  and  _463
REMARK  199  A    between atoms: _463  and  _464
REMARK  200  A    between atoms: _468  and  _470
REMARK  201  A    between atoms: _470  and  _471
REMARK  202  A    between atoms: _470  and  _473
REMARK  203  A    between atoms: _473  and  _474
REMARK  204  A    between atoms: _479  and  _480
REMARK  205  A    between atoms: _482  and  _484
REMARK  206  A    between atoms: _484  and  _485
REMARK  207  A    between atoms: _487  and  _489
REMARK  208  A    between atoms: _489  and  _490
REMARK  209  A    between atoms: _489  and  _492
REMARK  210  A    between atoms: _492  and  _493
REMARK  211  A    between atoms: _496  and  _498
REMARK  212  A    between atoms: _498  and  _499
REMARK  213  A    between atoms: _498  and  _501
REMARK  214  A    between atoms: _501  and  _502
REMARK  215  A    between atoms: _507  and  _508
REMARK  216  A    between atoms: _510  and  _512
REMARK  217  A    between atoms: _512  and  _513
REMARK  218  A    between atoms: _512  and  _515
REMARK  219  A    between atoms: _515  and  _516
REMARK                            x       y       z     vdW  Elec       q    Type
REMARK                         _______ _______ _______ _____ _____    ______ ____
ROOT
ATOM      1  CA  GLU A   2      11.496  73.688   6.921  0.00  0.00    +0.149 C 
ENDROOT
BRANCH   1   3
ATOM      2  C   HIS A   1      13.466  75.072   7.038  0.00  0.00    +0.239 C 
ATOM      3  N   GLU A   2      12.523  74.382   7.674  0.00  0.00    -0.297 N 
ATOM      4  H   GLU A   2      12.522  74.340   8.713  0.00  0.00    +0.150 HD
ATOM      5  O   HIS A   1      13.479  75.197   5.813  0.00  0.00    -0.274 OA
BRANCH   2   6
ATOM      6  CA  HIS A   1      14.530  75.742   7.887  0.00  0.00    +0.151 C 
BRANCH   6   7
ATOM      7  N   HIS A   1      15.751  75.794   7.084  0.00  0.00    -0.238 NA
ATOM      8  H   HIS A   1      15.662  75.843   6.049  0.00  0.00    +0.142 HD
ENDBRANCH   6   7
BRANCH   6   9
ATOM      9  CB  HIS A   1      14.047  77.141   8.311  0.00  0.00    +0.074 C 
BRANCH   9  10
ATOM     10  CG  HIS A   1      12.668  77.142   8.909  0.00  0.00    +0.082 A 
ATOM     11  CD2 HIS A   1      12.250  76.977  10.187  0.00  0.00    +0.115 A 
ATOM     12  NE2 HIS A   1      10.875  77.032  10.177  0.00  0.00    -0.221 NA
ATOM     13  CE1 HIS A   1      10.462  77.211   8.935  0.00  0.00    +0.199 A 
ATOM     14  ND1 HIS A   1      11.523  77.276   8.148  0.00  0.00    -0.227 NA
ENDBRANCH   9  10
ENDBRANCH   6   9
ENDBRANCH   2   6
ENDBRANCH   1   3
BRANCH   1  15
ATOM     15  C   GLU A   2      10.891  74.431   5.712  0.00  0.00    +0.241 C 
ATOM     16  N   LYS A   3      10.461  75.671   5.894  0.00  0.00    -0.298 N 
ATOM     17  H   LYS A   3      10.637  76.161   6.794  0.00  0.00    +0.150 HD
ATOM     18  O   GLU A   2      10.769  73.865   4.625  0.00  0.00    -0.273 OA
BRANCH  16  19
ATOM     19  CA  LYS A   3       9.736  76.343   4.817  0.00  0.00    +0.137 C 
BRANCH  19  20
ATOM     20  C   LYS A   3      10.652  77.230   3.972  0.00  0.00    +0.227 C 
ATOM     21  O   LYS A   3      10.236  77.751   2.924  0.00  0.00    -0.286 OA
ENDBRANCH  19  20
BRANCH  19  22
ATOM     22  CB  LYS A   3       8.578  77.159   5.393  0.00  0.00    +0.028 C 
BRANCH  22  23
ATOM     23  CG  LYS A   3       7.561  76.329   6.171  0.00  0.00    -0.000 C 
BRANCH  23  24
ATOM     24  CD  LYS A   3       6.818  75.357   5.264  0.00  0.00    -0.024 C 
BRANCH  24  25
ATOM     25  CE  LYS A   3       5.744  74.598   6.028  0.00  0.00    -0.086 C 
BRANCH  25  26
ATOM     26  NZ  LYS A   3       5.055  73.593   5.172  0.00  0.00    +0.380 N 
ATOM     27  HZ1 LYS A   3       4.331  73.099   5.733  0.00  0.00    -0.089 HD
ATOM     28  HZ2 LYS A   3       5.750  72.905   4.819  0.00  0.00    -0.089 HD
ATOM     29  HZ3 LYS A   3       4.604  74.075   4.369  0.00  0.00    -0.089 HD
ENDBRANCH  25  26
ENDBRANCH  24  25
ENDBRANCH  23  24
ENDBRANCH  22  23
ENDBRANCH  19  22
ENDBRANCH  16  19
ENDBRANCH   1  15
BRANCH   1  30
ATOM     30  CB  GLU A   2      10.367  73.192   7.833  0.00  0.00    +0.041 C 
BRANCH  30  31
ATOM     31  CG  GLU A   2       9.445  72.250   7.086  0.00  0.00    +0.116 C 
BRANCH  31  32
ATOM     32  CD  GLU A   2       8.375  71.596   7.957  0.00  0.00    +0.365 C 
ATOM     33  OE2 GLU A   2       8.647  71.249   9.132  0.00  0.00    -0.246 OA
ATOM     34  OE1 GLU A   2       7.262  71.398   7.425  0.00  0.00    -0.246 OA
ENDBRANCH  31  32
ENDBRANCH  30  31
ENDBRANCH   1  30
TORSDOF 16
REMARK  Name = ../refined-set-2016/2vwl/2vwl_pocket.pdb
REMARK  219 active torsions:
REMARK  status: ('A' for Active; 'I' for Inactive)
REMARK    1  A    between atoms: _1  and  _5
REMARK    2  A    between atoms: _5  and  _6
REMARK    3  A    between atoms: _5  and  _8
REMARK    4  A    between atoms: _8  and  _9
REMARK    5  A    between atoms: _12  and  _14
REMARK    6  A    between atoms: _14  and  _15
REMARK    7  A    between atoms: _14  and  _17
REMARK    8  A    between atoms: _20  and  _22
REMARK    9  A    between atoms: _22  and  _23
REMARK   10  A    between atoms: _22  and  _25
REMARK   11  A    between atoms: _25  and  _26
REMARK   12  A    between atoms: _31  and  _33
REMARK   13  A    between atoms: _33  and  _34
REMARK   14  A    between atoms: _33  and  _36
REMARK   15  A    between atoms: _36  and  _37
REMARK   16  A    between atoms: _37  and  _38
REMARK   17  A    between atoms: _43  and  _45
REMARK   18  A    between atoms: _45  and  _46
REMARK   19  A    between atoms: _45  and  _48
REMARK   20  A    between atoms: _48  and  _49
REMARK   21  A    between atoms: _52  and  _54
REMARK   22  A    between atoms: _54  and  _55
REMARK   23  A    between atoms: _54  and  _57
REMARK   24  A    between atoms: _57  and  _58
REMARK   25  A    between atoms: _58  and  _59
REMARK   26  A    between atoms: _59  and  _60
REMARK   27  A    between atoms: _60  and  _61
REMARK   28  A    between atoms: _65  and  _67
REMARK   29  A    between atoms: _67  and  _68
REMARK   30  A    between atoms: _67  and  _70
REMARK   31  A    between atoms: _70  and  _71
REMARK   32  A    between atoms: _71  and  _72
REMARK   33  A    between atoms: _75  and  _77
REMARK   34  A    between atoms: _77  and  _78
REMARK   35  A    between atoms: _77  and  _80
REMARK   36  A    between atoms: _80  and  _81
REMARK   37  A    between atoms: _84  and  _86
REMARK   38  A    between atoms: _86  and  _87
REMARK   39  A    between atoms: _86  and  _89
REMARK   40  A    between atoms: _89  and  _90
REMARK   41  A    between atoms: _95  and  _96
REMARK   42  A    between atoms: _98  and  _100
REMARK   43  A    between atoms: _100  and  _101
REMARK   44  A    between atoms: _100  and  _103
REMARK   45  A    between atoms: _103  and  _104
REMARK   46  A    between atoms: _107  and  _109
REMARK   47  A    between atoms: _109  and  _110
REMARK   48  A    between atoms: _109  and  _112
REMARK   49  A    between atoms: _112  and  _113
REMARK   50  A    between atoms: _116  and  _118
REMARK   51  A    between atoms: _118  and  _119
REMARK   52  A    between atoms: _118  and  _121
REMARK   53  A    between atoms: _124  and  _126
REMARK   54  A    between atoms: _126  and  _127
REMARK   55  A    between atoms: _126  and  _129
REMARK   56  A    between atoms: _129  and  _130
REMARK   57  A    between atoms: _130  and  _131
REMARK   58  A    between atoms: _131  and  _132
REMARK   59  A    between atoms: _141  and  _143
REMARK   60  A    between atoms: _143  and  _144
REMARK   61  A    between atoms: _143  and  _146
REMARK   62  A    between atoms: _146  and  _147
REMARK   63  A    between atoms: _152  and  _154
REMARK   64  A    between atoms: _154  and  _155
REMARK   65  A    between atoms: _154  and  _157
REMARK   66  A    between atoms: _157  and  _158
REMARK   67  A    between atoms: _158  and  _159
REMARK   68  A    between atoms: _162  and  _164
REMARK   69  A    between atoms: _164  and  _165
REMARK   70  A    between atoms: _164  and  _167
REMARK   71  A    between atoms: _167  and  _168
REMARK   72  A    between atoms: _168  and  _169
REMARK   73  A    between atoms: _169  and  _170
REMARK   74  A    between atoms: _170  and  _171
REMARK   75  A    between atoms: _175  and  _177
REMARK   76  A    between atoms: _177  and  _178
REMARK   77  A    between atoms: _177  and  _180
REMARK   78  A    between atoms: _183  and  _185
REMARK   79  A    between atoms: _185  and  _186
REMARK   80  A    between atoms: _185  and  _188
REMARK   81  A    between atoms: _188  and  _189
REMARK   82  A    between atoms: _191  and  _193
REMARK   83  A    between atoms: _193  and  _194
REMARK   84  A    between atoms: _193  and  _196
REMARK   85  A    between atoms: _196  and  _197
REMARK   86  A    between atoms: _199  and  _201
REMARK   87  A    between atoms: _201  and  _202
REMARK   88  A    between atoms: _201  and  _204
REMARK   89  A    between atoms: _204  and  _205
REMARK   90  A    between atoms: _211  and  _213
REMARK   91  A    between atoms: _213  and  _214
REMARK   92  A    between atoms: _213  and  _216
REMARK   93  A    between atoms: _216  and  _217
REMARK   94  A    between atoms: _220  and  _222
REMARK   95  A    between atoms: _222  and  _223
REMARK   96  A    between atoms: _222  and  _225
REMARK   97  A    between atoms: _225  and  _226
REMARK   98  A    between atoms: _229  and  _231
REMARK   99  A    between atoms: _231  and  _232
REMARK  100  A    between atoms: _231  and  _234
REMARK  101  A    between atoms: _234  and  _235
REMARK  102  A    between atoms: _238  and  _240
REMARK  103  A    between atoms: _240  and  _241
REMARK  104  A    between atoms: _240  and  _243
REMARK  105  A    between atoms: _243  and  _244
REMARK  106  A    between atoms: _244  and  _245
REMARK  107  A    between atoms: _247  and  _249
REMARK  108  A    between atoms: _249  and  _250
REMARK  109  A    between atoms: _249  and  _252
REMARK  110  A    between atoms: _252  and  _253
REMARK  111  A    between atoms: _259  and  _261
REMARK  112  A    between atoms: _261  and  _262
REMARK  113  A    between atoms: _261  and  _264
REMARK  114  A    between atoms: _266  and  _268
REMARK  115  A    between atoms: _268  and  _269
REMARK  116  A    between atoms: _272  and  _274
REMARK  117  A    between atoms: _274  and  _275
REMARK  118  A    between atoms: _277  and  _279
REMARK  119  A    between atoms: _279  and  _280
REMARK  120  A    between atoms: _279  and  _282
REMARK  121  A    between atoms: _282  and  _283
REMARK  122  A    between atoms: _283  and  _284
REMARK  123  A    between atoms: _287  and  _289
REMARK  124  A    between atoms: _289  and  _290
REMARK  125  A    between atoms: _289  and  _292
REMARK  126  A    between atoms: _292  and  _293
REMARK  127  A    between atoms: _296  and  _298
REMARK  128  A    between atoms: _298  and  _299
REMARK  129  A    between atoms: _302  and  _304
REMARK  130  A    between atoms: _304  and  _305
REMARK  131  A    between atoms: _304  and  _307
REMARK  132  A    between atoms: _307  and  _308
REMARK  133  A    between atoms: _308  and  _431
REMARK  134  A    between atoms: _309  and  _311
REMARK  135  A    between atoms: _311  and  _312
REMARK  136  A    between atoms: _311  and  _314
REMARK  137  A    between atoms: _314  and  _315
REMARK  138  A    between atoms: _315  and  _316
REMARK  139  A    between atoms: _321  and  _323
REMARK  140  A    between atoms: _323  and  _324
REMARK  141  A    between atoms: _326  and  _328
REMARK  142  A    between atoms: _328  and  _329
REMARK  143  A    between atoms: _328  and  _331
REMARK  144  A    between atoms: _331  and  _332
REMARK  145  A    between atoms: _335  and  _337
REMARK  146  A    between atoms: _337  and  _338
REMARK  147  A    between atoms: _337  and  _340
REMARK  148  A    between atoms: _340  and  _341
REMARK  149  A    between atoms: _343  and  _345
REMARK  150  A    between atoms: _345  and  _346
REMARK  151  A    between atoms: _348  and  _350
REMARK  152  A    between atoms: _350  and  _351
REMARK  153  A    between atoms: _353  and  _355
REMARK  154  A    between atoms: _355  and  _356
REMARK  155  A    between atoms: _355  and  _358
REMARK  156  A    between atoms: _358  and  _359
REMARK  157  A    between atoms: _364  and  _366
REMARK  158  A    between atoms: _366  and  _367
REMARK  159  A    between atoms: _366  and  _369
REMARK  160  A    between atoms: _369  and  _370
REMARK  161  A    between atoms: _373  and  _375
REMARK  162  A    between atoms: _375  and  _376
REMARK  163  A    between atoms: _375  and  _378
REMARK  164  A    between atoms: _381  and  _383
REMARK  165  A    between atoms: _383  and  _384
REMARK  166  A    between atoms: _383  and  _386
REMARK  167  A    between atoms: _386  and  _387
REMARK  168  A    between atoms: _389  and  _391
REMARK  169  A    between atoms: _391  and  _392
REMARK  170  A    between atoms: _391  and  _394
REMARK  171  A    between atoms: _394  and  _395
REMARK  172  A    between atoms: _405  and  _407
REMARK  173  A    between atoms: _407  and  _408
REMARK  174  A    between atoms: _410  and  _412
REMARK  175  A    between atoms: _412  and  _413
REMARK  176  A    between atoms: _412  and  _415
REMARK  177  A    between atoms: _415  and  _416
REMARK  178  A    between atoms: _416  and  _417
REMARK  179  A    between atoms: _420  and  _422
REMARK  180  A    between atoms: _422  and  _423
REMARK  181  A    between atoms: _425  and  _427
REMARK  182  A    between atoms: _427  and  _428
REMARK  183  A    between atoms: _427  and  _430
REMARK  184  A    between atoms: _430  and  _431
REMARK  185  A    between atoms: _432  and  _434
REMARK  186  A    between atoms: _434  and  _435
REMARK  187  A    between atoms: _438  and  _440
REMARK  188  A    between atoms: _440  and  _441
REMARK  189  A    between atoms: _440  and  _443
REMARK  190  A    between atoms: _443  and  _444
REMARK  191  A    between atoms: _444  and  _445
REMARK  192  A    between atoms: _445  and  _446
REMARK  193  A    between atoms: _455  and  _457
REMARK  194  A    between atoms: _457  and  _458
REMARK  195  A    between atoms: _457  and  _460
REMARK  196  A    between atoms: _460  and  _461
REMARK  197  A    between atoms: _461  and  _462
REMARK  198  A    between atoms: _462  and  _463
REMARK  199  A    between atoms: _463  and  _464
REMARK  200  A    between atoms: _468  and  _470
REMARK  201  A    between atoms: _470  and  _471
REMARK  202  A    between atoms: _470  and  _473
REMARK  203  A    between atoms: _473  and  _474
REMARK  204  A    between atoms: _479  and  _480
REMARK  205  A    between atoms: _482  and  _484
REMARK  206  A    between atoms: _484  and  _485
REMARK  207  A    between atoms: _487  and  _489
REMARK  208  A    between atoms: _489  and  _490
REMARK  209  A    between atoms: _489  and  _492
REMARK  210  A    between atoms: _492  and  _493
REMARK  211  A    between atoms: _496  and  _498
REMARK  212  A    between atoms: _498  and  _499
REMARK  213  A    between atoms: _498  and  _501
REMARK  214  A    between atoms: _501  and  _502
REMARK  215  A    between atoms: _507  and  _508
REMARK  216  A    between atoms: _510  and  _512
REMARK  217  A    between atoms: _512  and  _513
REMARK  218  A    between atoms: _512  and  _515
REMARK  219  A    between atoms: _515  and  _516
REMARK                            x       y       z     vdW  Elec       q    Type
REMARK                         _______ _______ _______ _____ _____    ______ ____
ROOT
ATOM      1  CA  VAL A   1      22.771  63.325  14.574  0.00  0.00    +0.133 C 
ENDROOT
BRANCH   1   2
ATOM      2  CB  VAL A   1      21.797  63.173  13.356  0.00  0.00    +0.023 C 
ATOM      3  CG2 VAL A   1      21.345  64.566  12.820  0.00  0.00    +0.002 C 
ATOM      4  CG1 VAL A   1      22.389  62.290  12.237  0.00  0.00    +0.002 C 
ENDBRANCH   1   2
BRANCH   1   5
ATOM      5  N   VAL A   1      24.105  63.810  14.219  0.00  0.00    -0.239 NA
ATOM      6  H   VAL A   1      24.769  63.191  13.711  0.00  0.00    +0.142 HD
ENDBRANCH   1   5
BRANCH   1   7
ATOM      7  C   VAL A   1      22.851  62.016  15.348  0.00  0.00    +0.224 C 
ATOM      8  O   VAL A   1      23.458  61.055  14.894  0.00  0.00    -0.287 OA
ENDBRANCH   1   7
TORSDOF 3
REMARK  Name = ../refined-set-2016/2vwl/2vwl_pocket.pdb
REMARK  219 active torsions:
REMARK  status: ('A' for Active; 'I' for Inactive)
REMARK    1  A    between atoms: _1  and  _5
REMARK    2  A    between atoms: _5  and  _6
REMARK    3  A    between atoms: _5  and  _8
REMARK    4  A    between atoms: _8  and  _9
REMARK    5  A    between atoms: _12  and  _14
REMARK    6  A    between atoms: _14  and  _15
REMARK    7  A    between atoms: _14  and  _17
REMARK    8  A    between atoms: _20  and  _22
REMARK    9  A    between atoms: _22  and  _23
REMARK   10  A    between atoms: _22  and  _25
REMARK   11  A    between atoms: _25  and  _26
REMARK   12  A    between atoms: _31  and  _33
REMARK   13  A    between atoms: _33  and  _34
REMARK   14  A    between atoms: _33  and  _36
REMARK   15  A    between atoms: _36  and  _37
REMARK   16  A    between atoms: _37  and  _38
REMARK   17  A    between atoms: _43  and  _45
REMARK   18  A    between atoms: _45  and  _46
REMARK   19  A    between atoms: _45  and  _48
REMARK   20  A    between atoms: _48  and  _49
REMARK   21  A    between atoms: _52  and  _54
REMARK   22  A    between atoms: _54  and  _55
REMARK   23  A    between atoms: _54  and  _57
REMARK   24  A    between atoms: _57  and  _58
REMARK   25  A    between atoms: _58  and  _59
REMARK   26  A    between atoms: _59  and  _60
REMARK   27  A    between atoms: _60  and  _61
REMARK   28  A    between atoms: _65  and  _67
REMARK   29  A    between atoms: _67  and  _68
REMARK   30  A    between atoms: _67  and  _70
REMARK   31  A    between atoms: _70  and  _71
REMARK   32  A    between atoms: _71  and  _72
REMARK   33  A    between atoms: _75  and  _77
REMARK   34  A    between atoms: _77  and  _78
REMARK   35  A    between atoms: _77  and  _80
REMARK   36  A    between atoms: _80  and  _81
REMARK   37  A    between atoms: _84  and  _86
REMARK   38  A    between atoms: _86  and  _87
REMARK   39  A    between atoms: _86  and  _89
REMARK   40  A    between atoms: _89  and  _90
REMARK   41  A    between atoms: _95  and  _96
REMARK   42  A    between atoms: _98  and  _100
REMARK   43  A    between atoms: _100  and  _101
REMARK   44  A    between atoms: _100  and  _103
REMARK   45  A    between atoms: _103  and  _104
REMARK   46  A    between atoms: _107  and  _109
REMARK   47  A    between atoms: _109  and  _110
REMARK   48  A    between atoms: _109  and  _112
REMARK   49  A    between atoms: _112  and  _113
REMARK   50  A    between atoms: _116  and  _118
REMARK   51  A    between atoms: _118  and  _119
REMARK   52  A    between atoms: _118  and  _121
REMARK   53  A    between atoms: _124  and  _126
REMARK   54  A    between atoms: _126  and  _127
REMARK   55  A    between atoms: _126  and  _129
REMARK   56  A    between atoms: _129  and  _130
REMARK   57  A    between atoms: _130  and  _131
REMARK   58  A    between atoms: _131  and  _132
REMARK   59  A    between atoms: _141  and  _143
REMARK   60  A    between atoms: _143  and  _144
REMARK   61  A    between atoms: _143  and  _146
REMARK   62  A    between atoms: _146  and  _147
REMARK   63  A    between atoms: _152  and  _154
REMARK   64  A    between atoms: _154  and  _155
REMARK   65  A    between atoms: _154  and  _157
REMARK   66  A    between atoms: _157  and  _158
REMARK   67  A    between atoms: _158  and  _159
REMARK   68  A    between atoms: _162  and  _164
REMARK   69  A    between atoms: _164  and  _165
REMARK   70  A    between atoms: _164  and  _167
REMARK   71  A    between atoms: _167  and  _168
REMARK   72  A    between atoms: _168  and  _169
REMARK   73  A    between atoms: _169  and  _170
REMARK   74  A    between atoms: _170  and  _171
REMARK   75  A    between atoms: _175  and  _177
REMARK   76  A    between atoms: _177  and  _178
REMARK   77  A    between atoms: _177  and  _180
REMARK   78  A    between atoms: _183  and  _185
REMARK   79  A    between atoms: _185  and  _186
REMARK   80  A    between atoms: _185  and  _188
REMARK   81  A    between atoms: _188  and  _189
REMARK   82  A    between atoms: _191  and  _193
REMARK   83  A    between atoms: _193  and  _194
REMARK   84  A    between atoms: _193  and  _196
REMARK   85  A    between atoms: _196  and  _197
REMARK   86  A    between atoms: _199  and  _201
REMARK   87  A    between atoms: _201  and  _202
REMARK   88  A    between atoms: _201  and  _204
REMARK   89  A    between atoms: _204  and  _205
REMARK   90  A    between atoms: _211  and  _213
REMARK   91  A    between atoms: _213  and  _214
REMARK   92  A    between atoms: _213  and  _216
REMARK   93  A    between atoms: _216  and  _217
REMARK   94  A    between atoms: _220  and  _222
REMARK   95  A    between atoms: _222  and  _223
REMARK   96  A    between atoms: _222  and  _225
REMARK   97  A    between atoms: _225  and  _226
REMARK   98  A    between atoms: _229  and  _231
REMARK   99  A    between atoms: _231  and  _232
REMARK  100  A    between atoms: _231  and  _234
REMARK  101  A    between atoms: _234  and  _235
REMARK  102  A    between atoms: _238  and  _240
REMARK  103  A    between atoms: _240  and  _241
REMARK  104  A    between atoms: _240  and  _243
REMARK  105  A    between atoms: _243  and  _244
REMARK  106  A    between atoms: _244  and  _245
REMARK  107  A    between atoms: _247  and  _249
REMARK  108  A    between atoms: _249  and  _250
REMARK  109  A    between atoms: _249  and  _252
REMARK  110  A    between atoms: _252  and  _253
REMARK  111  A    between atoms: _259  and  _261
REMARK  112  A    between atoms: _261  and  _262
REMARK  113  A    between atoms: _261  and  _264
REMARK  114  A    between atoms: _266  and  _268
REMARK  115  A    between atoms: _268  and  _269
REMARK  116  A    between atoms: _272  and  _274
REMARK  117  A    between atoms: _274  and  _275
REMARK  118  A    between atoms: _277  and  _279
REMARK  119  A    between atoms: _279  and  _280
REMARK  120  A    between atoms: _279  and  _282
REMARK  121  A    between atoms: _282  and  _283
REMARK  122  A    between atoms: _283  and  _284
REMARK  123  A    between atoms: _287  and  _289
REMARK  124  A    between atoms: _289  and  _290
REMARK  125  A    between atoms: _289  and  _292
REMARK  126  A    between atoms: _292  and  _293
REMARK  127  A    between atoms: _296  and  _298
REMARK  128  A    between atoms: _298  and  _299
REMARK  129  A    between atoms: _302  and  _304
REMARK  130  A    between atoms: _304  and  _305
REMARK  131  A    between atoms: _304  and  _307
REMARK  132  A    between atoms: _307  and  _308
REMARK  133  A    between atoms: _308  and  _431
REMARK  134  A    between atoms: _309  and  _311
REMARK  135  A    between atoms: _311  and  _312
REMARK  136  A    between atoms: _311  and  _314
REMARK  137  A    between atoms: _314  and  _315
REMARK  138  A    between atoms: _315  and  _316
REMARK  139  A    between atoms: _321  and  _323
REMARK  140  A    between atoms: _323  and  _324
REMARK  141  A    between atoms: _326  and  _328
REMARK  142  A    between atoms: _328  and  _329
REMARK  143  A    between atoms: _328  and  _331
REMARK  144  A    between atoms: _331  and  _332
REMARK  145  A    between atoms: _335  and  _337
REMARK  146  A    between atoms: _337  and  _338
REMARK  147  A    between atoms: _337  and  _340
REMARK  148  A    between atoms: _340  and  _341
REMARK  149  A    between atoms: _343  and  _345
REMARK  150  A    between atoms: _345  and  _346
REMARK  151  A    between atoms: _348  and  _350
REMARK  152  A    between atoms: _350  and  _351
REMARK  153  A    between atoms: _353  and  _355
REMARK  154  A    between atoms: _355  and  _356
REMARK  155  A    between atoms: _355  and  _358
REMARK  156  A    between atoms: _358  and  _359
REMARK  157  A    between atoms: _364  and  _366
REMARK  158  A    between atoms: _366  and  _367
REMARK  159  A    between atoms: _366  and  _369
REMARK  160  A    between atoms: _369  and  _370
REMARK  161  A    between atoms: _373  and  _375
REMARK  162  A    between atoms: _375  and  _376
REMARK  163  A    between atoms: _375  and  _378
REMARK  164  A    between atoms: _381  and  _383
REMARK  165  A    between atoms: _383  and  _384
REMARK  166  A    between atoms: _383  and  _386
REMARK  167  A    between atoms: _386  and  _387
REMARK  168  A    between atoms: _389  and  _391
REMARK  169  A    between atoms: _391  and  _392
REMARK  170  A    between atoms: _391  and  _394
REMARK  171  A    between atoms: _394  and  _395
REMARK  172  A    between atoms: _405  and  _407
REMARK  173  A    between atoms: _407  and  _408
REMARK  174  A    between atoms: _410  and  _412
REMARK  175  A    between atoms: _412  and  _413
REMARK  176  A    between atoms: _412  and  _415
REMARK  177  A    between atoms: _415  and  _416
REMARK  178  A    between atoms: _416  and  _417
REMARK  179  A    between atoms: _420  and  _422
REMARK  180  A    between atoms: _422  and  _423
REMARK  181  A    between atoms: _425  and  _427
REMARK  182  A    between atoms: _427  and  _428
REMARK  183  A    between atoms: _427  and  _430
REMARK  184  A    between atoms: _430  and  _431
REMARK  185  A    between atoms: _432  and  _434
REMARK  186  A    between atoms: _434  and  _435
REMARK  187  A    between atoms: _438  and  _440
REMARK  188  A    between atoms: _440  and  _441
REMARK  189  A    between atoms: _440  and  _443
REMARK  190  A    between atoms: _443  and  _444
REMARK  191  A    between atoms: _444  and  _445
REMARK  192  A    between atoms: _445  and  _446
REMARK  193  A    between atoms: _455  and  _457
REMARK  194  A    between atoms: _457  and  _458
REMARK  195  A    between atoms: _457  and  _460
REMARK  196  A    between atoms: _460  and  _461
REMARK  197  A    between atoms: _461  and  _462
REMARK  198  A    between atoms: _462  and  _463
REMARK  199  A    between atoms: _463  and  _464
REMARK  200  A    between atoms: _468  and  _470
REMARK  201  A    between atoms: _470  and  _471
REMARK  202  A    between atoms: _470  and  _473
REMARK  203  A    between atoms: _473  and  _474
REMARK  204  A    between atoms: _479  and  _480
REMARK  205  A    between atoms: _482  and  _484
REMARK  206  A    between atoms: _484  and  _485
REMARK  207  A    between atoms: _487  and  _489
REMARK  208  A    between atoms: _489  and  _490
REMARK  209  A    between atoms: _489  and  _492
REMARK  210  A    between atoms: _492  and  _493
REMARK  211  A    between atoms: _496  and  _498
REMARK  212  A    between atoms: _498  and  _499
REMARK  213  A    between atoms: _498  and  _501
REMARK  214  A    between atoms: _501  and  _502
REMARK  215  A    between atoms: _507  and  _508
REMARK  216  A    between atoms: _510  and  _512
REMARK  217  A    between atoms: _512  and  _513
REMARK  218  A    between atoms: _512  and  _515
REMARK  219  A    between atoms: _515  and  _516
REMARK                            x       y       z     vdW  Elec       q    Type
REMARK                         _______ _______ _______ _____ _____    ______ ____
ROOT
ATOM      1  C   PHE A   3       5.305  54.756   8.953  0.00  0.00    +0.241 C 
ATOM      2  O   PHE A   3       6.077  54.927   9.879  0.00  0.00    -0.273 OA
ATOM      3  N   ILE A   4       5.212  53.619   8.278  0.00  0.00    -0.297 N 
ATOM      4  H   ILE A   4       4.600  53.592   7.438  0.00  0.00    +0.150 HD
ENDROOT
BRANCH   3   5
ATOM      5  CA  ILE A   4       5.932  52.391   8.658  0.00  0.00    +0.149 C 
BRANCH   5   6
ATOM      6  C   ILE A   4       7.432  52.567   8.492  0.00  0.00    +0.241 C 
ATOM      7  N   ILE A   5       8.190  52.246   9.536  0.00  0.00    -0.297 N 
ATOM      8  H   ILE A   5       7.724  51.970  10.424  0.00  0.00    +0.150 HD
ATOM      9  O   ILE A   4       7.890  53.021   7.441  0.00  0.00    -0.273 OA
BRANCH   7  10
ATOM     10  CA  ILE A   5       9.671  52.265   9.487  0.00  0.00    +0.149 C 
BRANCH  10  11
ATOM     11  C   ILE A   5      10.061  50.823   9.211  0.00  0.00    +0.241 C 
ATOM     12  O   ILE A   5       9.783  49.963  10.049  0.00  0.00    -0.273 OA
ATOM     13  N   THR A   6      10.678  50.554   8.050  0.00  0.00    -0.296 N 
ATOM     14  H   THR A   6      10.893  51.333   7.396  0.00  0.00    +0.150 HD
BRANCH  13  15
ATOM     15  CA  THR A   6      11.051  49.204   7.689  0.00  0.00    +0.164 C 
BRANCH  15  16
ATOM     16  CB  THR A   6      10.991  49.014   6.177  0.00  0.00    +0.136 C 
ATOM     17  CG2 THR A   6       9.702  49.595   5.628  0.00  0.00    +0.034 C 
BRANCH  16  18
ATOM     18  OG1 THR A   6      12.114  49.689   5.587  0.00  0.00    -0.382 OA
ATOM     19  HG1 THR A   6      12.088  49.574   4.604  0.00  0.00    +0.210 HD
ENDBRANCH  16  18
ENDBRANCH  15  16
BRANCH  15  20
ATOM     20  C   THR A   6      12.492  48.890   8.125  0.00  0.00    +0.229 C 
ATOM     21  O   THR A   6      13.256  49.780   8.537  0.00  0.00    -0.286 OA
ENDBRANCH  15  20
ENDBRANCH  13  15
ENDBRANCH  10  11
BRANCH  10  22
ATOM     22  CB  ILE A   5      10.246  52.710  10.868  0.00  0.00    +0.027 C 
ATOM     23  CG2 ILE A   5      11.805  52.772  10.897  0.00  0.00    +0.002 C 
BRANCH  22  24
ATOM     24  CG1 ILE A   5       9.691  54.096  11.262  0.00  0.00    +0.002 C 
ATOM     25  CD1 ILE A   5       9.895  55.127  10.181  0.00  0.00    +0.000 C 
ENDBRANCH  22  24
ENDBRANCH  10  22
ENDBRANCH   7  10
ENDBRANCH   5   6
BRANCH   5  26
ATOM     26  CB  ILE A   4       5.440  51.253   7.777  0.00  0.00    +0.027 C 
ATOM     27  CG2 ILE A   4       6.322  50.034   7.879  0.00  0.00    +0.002 C 
BRANCH  26  28
ATOM     28  CG1 ILE A   4       4.024  50.860   8.221  0.00  0.00    +0.002 C 
ATOM     29  CD1 ILE A   4       3.260  50.299   7.104  0.00  0.00    +0.000 C 
ENDBRANCH  26  28
ENDBRANCH   5  26
ENDBRANCH   3   5
BRANCH   1  30
ATOM     30  CA  PHE A   3       4.445  55.900   8.450  0.00  0.00    +0.153 C 
BRANCH  30  33
ATOM     31  C   SER A   2       3.047  57.295   9.934  0.00  0.00    +0.243 C 
ATOM     32  O   SER A   2       2.018  56.696   9.604  0.00  0.00    -0.273 OA
ATOM     33  N   PHE A   3       4.250  56.954   9.493  0.00  0.00    -0.297 N 
ATOM     34  H   PHE A   3       5.085  57.435   9.885  0.00  0.00    +0.150 HD
BRANCH  31  35
ATOM     35  CA  SER A   2       2.983  58.475  10.885  0.00  0.00    +0.178 C 
BRANCH  35  38
ATOM     36  C   SER A   1       4.782  57.832  12.404  0.00  0.00    +0.241 C 
ATOM     37  O   SER A   1       4.160  56.845  12.842  0.00  0.00    -0.274 OA
ATOM     38  N   SER A   2       4.282  58.683  11.502  0.00  0.00    -0.295 N 
ATOM     39  H   SER A   2       4.840  59.519  11.234  0.00  0.00    +0.150 HD
BRANCH  36  40
ATOM     40  CA  SER A   1       6.202  58.122  12.854  0.00  0.00    +0.174 C 
BRANCH  40  41
ATOM     41  N   SER A   1       6.393  57.979  14.291  0.00  0.00    -0.236 NA
ATOM     42  H   SER A   1       6.559  57.033  14.690  0.00  0.00    +0.142 HD
ENDBRANCH  40  41
BRANCH  40  43
ATOM     43  CB  SER A   1       7.146  57.159  12.130  0.00  0.00    +0.163 C 
BRANCH  43  44
ATOM     44  OG  SER A   1       7.012  57.241  10.738  0.00  0.00    -0.380 OA
ATOM     45  H   SER A   1       7.221  58.162  10.441  0.00  0.00    +0.211 HD
ENDBRANCH  43  44
ENDBRANCH  40  43
ENDBRANCH  36  40
ENDBRANCH  35  38
BRANCH  35  46
ATOM     46  CB  SER A   2       2.551  59.728  10.107  0.00  0.00    +0.166 C 
BRANCH  46  47
ATOM     47  OG  SER A   2       2.569  60.872  10.925  0.00  0.00    -0.380 OA
ATOM     48  H   SER A   2       1.947  60.743  11.684  0.00  0.00    +0.211 HD
ENDBRANCH  46  47
ENDBRANCH  35  46
ENDBRANCH  31  35
ENDBRANCH  30  33
BRANCH  30  49
ATOM     49  CB  PHE A   3       5.137  56.509   7.236  0.00  0.00    +0.055 C 
BRANCH  49  50
ATOM     50  CG  PHE A   3       4.407  57.724   6.673  0.00  0.00    -0.020 A 
ATOM     51  CD2 PHE A   3       4.752  59.010   7.073  0.00  0.00    -0.004 A 
ATOM     52  CE2 PHE A   3       4.081  60.112   6.576  0.00  0.00    -0.000 A 
ATOM     53  CZ  PHE A   3       3.005  59.922   5.697  0.00  0.00    -0.000 A 
ATOM     54  CE1 PHE A   3       2.623  58.664   5.351  0.00  0.00    -0.000 A 
ATOM     55  CD1 PHE A   3       3.335  57.553   5.840  0.00  0.00    -0.004 A 
ENDBRANCH  49  50
ENDBRANCH  30  49
ENDBRANCH   1  30
TORSDOF 24
REMARK  Name = ../refined-set-2016/2vwl/2vwl_pocket.pdb
REMARK  219 active torsions:
REMARK  status: ('A' for Active; 'I' for Inactive)
REMARK    1  A    between atoms: _1  and  _5
REMARK    2  A    between atoms: _5  and  _6
REMARK    3  A    between atoms: _5  and  _8
REMARK    4  A    between atoms: _8  and  _9
REMARK    5  A    between atoms: _12  and  _14
REMARK    6  A    between atoms: _14  and  _15
REMARK    7  A    between atoms: _14  and  _17
REMARK    8  A    between atoms: _20  and  _22
REMARK    9  A    between atoms: _22  and  _23
REMARK   10  A    between atoms: _22  and  _25
REMARK   11  A    between atoms: _25  and  _26
REMARK   12  A    between atoms: _31  and  _33
REMARK   13  A    between atoms: _33  and  _34
REMARK   14  A    between atoms: _33  and  _36
REMARK   15  A    between atoms: _36  and  _37
REMARK   16  A    between atoms: _37  and  _38
REMARK   17  A    between atoms: _43  and  _45
REMARK   18  A    between atoms: _45  and  _46
REMARK   19  A    between atoms: _45  and  _48
REMARK   20  A    between atoms: _48  and  _49
REMARK   21  A    between atoms: _52  and  _54
REMARK   22  A    between atoms: _54  and  _55
REMARK   23  A    between atoms: _54  and  _57
REMARK   24  A    between atoms: _57  and  _58
REMARK   25  A    between atoms: _58  and  _59
REMARK   26  A    between atoms: _59  and  _60
REMARK   27  A    between atoms: _60  and  _61
REMARK   28  A    between atoms: _65  and  _67
REMARK   29  A    between atoms: _67  and  _68
REMARK   30  A    between atoms: _67  and  _70
REMARK   31  A    between atoms: _70  and  _71
REMARK   32  A    between atoms: _71  and  _72
REMARK   33  A    between atoms: _75  and  _77
REMARK   34  A    between atoms: _77  and  _78
REMARK   35  A    between atoms: _77  and  _80
REMARK   36  A    between atoms: _80  and  _81
REMARK   37  A    between atoms: _84  and  _86
REMARK   38  A    between atoms: _86  and  _87
REMARK   39  A    between atoms: _86  and  _89
REMARK   40  A    between atoms: _89  and  _90
REMARK   41  A    between atoms: _95  and  _96
REMARK   42  A    between atoms: _98  and  _100
REMARK   43  A    between atoms: _100  and  _101
REMARK   44  A    between atoms: _100  and  _103
REMARK   45  A    between atoms: _103  and  _104
REMARK   46  A    between atoms: _107  and  _109
REMARK   47  A    between atoms: _109  and  _110
REMARK   48  A    between atoms: _109  and  _112
REMARK   49  A    between atoms: _112  and  _113
REMARK   50  A    between atoms: _116  and  _118
REMARK   51  A    between atoms: _118  and  _119
REMARK   52  A    between atoms: _118  and  _121
REMARK   53  A    between atoms: _124  and  _126
REMARK   54  A    between atoms: _126  and  _127
REMARK   55  A    between atoms: _126  and  _129
REMARK   56  A    between atoms: _129  and  _130
REMARK   57  A    between atoms: _130  and  _131
REMARK   58  A    between atoms: _131  and  _132
REMARK   59  A    between atoms: _141  and  _143
REMARK   60  A    between atoms: _143  and  _144
REMARK   61  A    between atoms: _143  and  _146
REMARK   62  A    between atoms: _146  and  _147
REMARK   63  A    between atoms: _152  and  _154
REMARK   64  A    between atoms: _154  and  _155
REMARK   65  A    between atoms: _154  and  _157
REMARK   66  A    between atoms: _157  and  _158
REMARK   67  A    between atoms: _158  and  _159
REMARK   68  A    between atoms: _162  and  _164
REMARK   69  A    between atoms: _164  and  _165
REMARK   70  A    between atoms: _164  and  _167
REMARK   71  A    between atoms: _167  and  _168
REMARK   72  A    between atoms: _168  and  _169
REMARK   73  A    between atoms: _169  and  _170
REMARK   74  A    between atoms: _170  and  _171
REMARK   75  A    between atoms: _175  and  _177
REMARK   76  A    between atoms: _177  and  _178
REMARK   77  A    between atoms: _177  and  _180
REMARK   78  A    between atoms: _183  and  _185
REMARK   79  A    between atoms: _185  and  _186
REMARK   80  A    between atoms: _185  and  _188
REMARK   81  A    between atoms: _188  and  _189
REMARK   82  A    between atoms: _191  and  _193
REMARK   83  A    between atoms: _193  and  _194
REMARK   84  A    between atoms: _193  and  _196
REMARK   85  A    between atoms: _196  and  _197
REMARK   86  A    between atoms: _199  and  _201
REMARK   87  A    between atoms: _201  and  _202
REMARK   88  A    between atoms: _201  and  _204
REMARK   89  A    between atoms: _204  and  _205
REMARK   90  A    between atoms: _211  and  _213
REMARK   91  A    between atoms: _213  and  _214
REMARK   92  A    between atoms: _213  and  _216
REMARK   93  A    between atoms: _216  and  _217
REMARK   94  A    between atoms: _220  and  _222
REMARK   95  A    between atoms: _222  and  _223
REMARK   96  A    between atoms: _222  and  _225
REMARK   97  A    between atoms: _225  and  _226
REMARK   98  A    between atoms: _229  and  _231
REMARK   99  A    between atoms: _231  and  _232
REMARK  100  A    between atoms: _231  and  _234
REMARK  101  A    between atoms: _234  and  _235
REMARK  102  A    between atoms: _238  and  _240
REMARK  103  A    between atoms: _240  and  _241
REMARK  104  A    between atoms: _240  and  _243
REMARK  105  A    between atoms: _243  and  _244
REMARK  106  A    between atoms: _244  and  _245
REMARK  107  A    between atoms: _247  and  _249
REMARK  108  A    between atoms: _249  and  _250
REMARK  109  A    between atoms: _249  and  _252
REMARK  110  A    between atoms: _252  and  _253
REMARK  111  A    between atoms: _259  and  _261
REMARK  112  A    between atoms: _261  and  _262
REMARK  113  A    between atoms: _261  and  _264
REMARK  114  A    between atoms: _266  and  _268
REMARK  115  A    between atoms: _268  and  _269
REMARK  116  A    between atoms: _272  and  _274
REMARK  117  A    between atoms: _274  and  _275
REMARK  118  A    between atoms: _277  and  _279
REMARK  119  A    between atoms: _279  and  _280
REMARK  120  A    between atoms: _279  and  _282
REMARK  121  A    between atoms: _282  and  _283
REMARK  122  A    between atoms: _283  and  _284
REMARK  123  A    between atoms: _287  and  _289
REMARK  124  A    between atoms: _289  and  _290
REMARK  125  A    between atoms: _289  and  _292
REMARK  126  A    between atoms: _292  and  _293
REMARK  127  A    between atoms: _296  and  _298
REMARK  128  A    between atoms: _298  and  _299
REMARK  129  A    between atoms: _302  and  _304
REMARK  130  A    between atoms: _304  and  _305
REMARK  131  A    between atoms: _304  and  _307
REMARK  132  A    between atoms: _307  and  _308
REMARK  133  A    between atoms: _308  and  _431
REMARK  134  A    between atoms: _309  and  _311
REMARK  135  A    between atoms: _311  and  _312
REMARK  136  A    between atoms: _311  and  _314
REMARK  137  A    between atoms: _314  and  _315
REMARK  138  A    between atoms: _315  and  _316
REMARK  139  A    between atoms: _321  and  _323
REMARK  140  A    between atoms: _323  and  _324
REMARK  141  A    between atoms: _326  and  _328
REMARK  142  A    between atoms: _328  and  _329
REMARK  143  A    between atoms: _328  and  _331
REMARK  144  A    between atoms: _331  and  _332
REMARK  145  A    between atoms: _335  and  _337
REMARK  146  A    between atoms: _337  and  _338
REMARK  147  A    between atoms: _337  and  _340
REMARK  148  A    between atoms: _340  and  _341
REMARK  149  A    between atoms: _343  and  _345
REMARK  150  A    between atoms: _345  and  _346
REMARK  151  A    between atoms: _348  and  _350
REMARK  152  A    between atoms: _350  and  _351
REMARK  153  A    between atoms: _353  and  _355
REMARK  154  A    between atoms: _355  and  _356
REMARK  155  A    between atoms: _355  and  _358
REMARK  156  A    between atoms: _358  and  _359
REMARK  157  A    between atoms: _364  and  _366
REMARK  158  A    between atoms: _366  and  _367
REMARK  159  A    between atoms: _366  and  _369
REMARK  160  A    between atoms: _369  and  _370
REMARK  161  A    between atoms: _373  and  _375
REMARK  162  A    between atoms: _375  and  _376
REMARK  163  A    between atoms: _375  and  _378
REMARK  164  A    between atoms: _381  and  _383
REMARK  165  A    between atoms: _383  and  _384
REMARK  166  A    between atoms: _383  and  _386
REMARK  167  A    between atoms: _386  and  _387
REMARK  168  A    between atoms: _389  and  _391
REMARK  169  A    between atoms: _391  and  _392
REMARK  170  A    between atoms: _391  and  _394
REMARK  171  A    between atoms: _394  and  _395
REMARK  172  A    between atoms: _405  and  _407
REMARK  173  A    between atoms: _407  and  _408
REMARK  174  A    between atoms: _410  and  _412
REMARK  175  A    between atoms: _412  and  _413
REMARK  176  A    between atoms: _412  and  _415
REMARK  177  A    between atoms: _415  and  _416
REMARK  178  A    between atoms: _416  and  _417
REMARK  179  A    between atoms: _420  and  _422
REMARK  180  A    between atoms: _422  and  _423
REMARK  181  A    between atoms: _425  and  _427
REMARK  182  A    between atoms: _427  and  _428
REMARK  183  A    between atoms: _427  and  _430
REMARK  184  A    between atoms: _430  and  _431
REMARK  185  A    between atoms: _432  and  _434
REMARK  186  A    between atoms: _434  and  _435
REMARK  187  A    between atoms: _438  and  _440
REMARK  188  A    between atoms: _440  and  _441
REMARK  189  A    between atoms: _440  and  _443
REMARK  190  A    between atoms: _443  and  _444
REMARK  191  A    between atoms: _444  and  _445
REMARK  192  A    between atoms: _445  and  _446
REMARK  193  A    between atoms: _455  and  _457
REMARK  194  A    between atoms: _457  and  _458
REMARK  195  A    between atoms: _457  and  _460
REMARK  196  A    between atoms: _460  and  _461
REMARK  197  A    between atoms: _461  and  _462
REMARK  198  A    between atoms: _462  and  _463
REMARK  199  A    between atoms: _463  and  _464
REMARK  200  A    between atoms: _468  and  _470
REMARK  201  A    between atoms: _470  and  _471
REMARK  202  A    between atoms: _470  and  _473
REMARK  203  A    between atoms: _473  and  _474
REMARK  204  A    between atoms: _479  and  _480
REMARK  205  A    between atoms: _482  and  _484
REMARK  206  A    between atoms: _484  and  _485
REMARK  207  A    between atoms: _487  and  _489
REMARK  208  A    between atoms: _489  and  _490
REMARK  209  A    between atoms: _489  and  _492
REMARK  210  A    between atoms: _492  and  _493
REMARK  211  A    between atoms: _496  and  _498
REMARK  212  A    between atoms: _498  and  _499
REMARK  213  A    between atoms: _498  and  _501
REMARK  214  A    between atoms: _501  and  _502
REMARK  215  A    between atoms: _507  and  _508
REMARK  216  A    between atoms: _510  and  _512
REMARK  217  A    between atoms: _512  and  _513
REMARK  218  A    between atoms: _512  and  _515
REMARK  219  A    between atoms: _515  and  _516
REMARK                            x       y       z     vdW  Elec       q    Type
REMARK                         _______ _______ _______ _____ _____    ______ ____
ROOT
ATOM      1  C   PHE A   2      16.616  55.264  10.848  0.00  0.00    +0.241 C 
ATOM      2  N   CYS A   3      16.469  55.627  12.120  0.00  0.00    -0.296 N 
ATOM      3  H   CYS A   3      16.623  54.928  12.874  0.00  0.00    +0.150 HD
ATOM      4  O   PHE A   2      16.557  56.076   9.913  0.00  0.00    -0.273 OA
ENDROOT
BRANCH   2   5
ATOM      5  CA  CYS A   3      16.097  56.987  12.469  0.00  0.00    +0.160 C 
BRANCH   5   6
ATOM      6  C   CYS A   3      17.261  57.655  13.158  0.00  0.00    +0.242 C 
ATOM      7  O   CYS A   3      18.066  56.990  13.817  0.00  0.00    -0.273 OA
ATOM      8  N   ALA A   4      17.373  58.961  12.988  0.00  0.00    -0.297 N 
ATOM      9  H   ALA A   4      16.672  59.480  12.421  0.00  0.00    +0.150 HD
BRANCH   8  10
ATOM     10  CA  ALA A   4      18.503  59.674  13.612  0.00  0.00    +0.149 C 
ATOM     11  CB  ALA A   4      19.808  59.594  12.679  0.00  0.00    +0.031 C 
BRANCH  10  12
ATOM     12  C   ALA A   4      18.065  61.101  13.765  0.00  0.00    +0.241 C 
ATOM     13  N   GLY A   5      18.619  61.791  14.750  0.00  0.00    -0.296 N 
ATOM     14  H   GLY A   5      19.314  61.335  15.375  0.00  0.00    +0.150 HD
ATOM     15  O   ALA A   4      17.236  61.593  12.981  0.00  0.00    -0.273 OA
BRANCH  13  16
ATOM     16  CA  GLY A   5      18.265  63.166  14.959  0.00  0.00    +0.163 C 
BRANCH  16  17
ATOM     17  C   GLY A   5      17.769  63.418  16.367  0.00  0.00    +0.229 C 
ATOM     18  O   GLY A   5      18.180  62.742  17.315  0.00  0.00    -0.286 OA
ENDBRANCH  16  17
ENDBRANCH  13  16
ENDBRANCH  10  12
ENDBRANCH   8  10
ENDBRANCH   5   6
BRANCH   5  19
ATOM     19  CB  CYS A   3      14.901  56.960  13.396  0.00  0.00    +0.098 C 
ATOM     20  SG  CYS A   3      13.608  55.883  12.675  0.00  0.00    -0.080 S 
ENDBRANCH   5  19
ENDBRANCH   2   5
BRANCH   1  21
ATOM     21  CA  PHE A   2      16.855  53.774  10.582  0.00  0.00    +0.153 C 
BRANCH  21  24
ATOM     22  C   MET A   1      16.029  52.366   8.758  0.00  0.00    +0.238 C 
ATOM     23  O   MET A   1      15.930  51.345   9.467  0.00  0.00    -0.274 OA
ATOM     24  N   PHE A   2      16.614  53.493   9.168  0.00  0.00    -0.297 N 
ATOM     25  H   PHE A   2      16.908  54.194   8.458  0.00  0.00    +0.150 HD
BRANCH  22  26
ATOM     26  CA  MET A   1      15.481  52.368   7.357  0.00  0.00    +0.146 C 
BRANCH  26  27
ATOM     27  N   MET A   1      15.436  50.985   6.848  0.00  0.00    -0.238 NA
ATOM     28  H   MET A   1      14.977  50.266   7.444  0.00  0.00    +0.142 HD
ENDBRANCH  26  27
BRANCH  26  29
ATOM     29  CB  MET A   1      14.070  52.960   7.430  0.00  0.00    +0.038 C 
BRANCH  29  30
ATOM     30  CG  MET A   1      13.335  52.993   6.091  0.00  0.00    +0.060 C 
BRANCH  30  31
ATOM     31  SD  MET A   1      11.608  53.467   6.314  0.00  0.00    -0.139 S 
ATOM     32  CE  MET A   1      10.966  52.980   4.700  0.00  0.00    +0.069 C 
ENDBRANCH  30  31
ENDBRANCH  29  30
ENDBRANCH  26  29
ENDBRANCH  22  26
ENDBRANCH  21  24
BRANCH  21  33
ATOM     33  CB  PHE A   2      18.257  53.349  11.013  0.00  0.00    +0.055 C 
BRANCH  33  34
ATOM     34  CG  PHE A   2      19.354  54.216  10.451  0.00  0.00    -0.020 A 
ATOM     35  CD2 PHE A   2      19.838  55.326  11.156  0.00  0.00    -0.004 A 
ATOM     36  CE2 PHE A   2      20.866  56.111  10.623  0.00  0.00    -0.000 A 
ATOM     37  CZ  PHE A   2      21.406  55.781   9.391  0.00  0.00    -0.000 A 
ATOM     38  CE1 PHE A   2      20.927  54.694   8.688  0.00  0.00    -0.000 A 
ATOM     39  CD1 PHE A   2      19.890  53.923   9.204  0.00  0.00    -0.004 A 
ENDBRANCH  33  34
ENDBRANCH  21  33
ENDBRANCH   1  21
TORSDOF 16
REMARK  Name = ../refined-set-2016/2vwl/2vwl_pocket.pdb
REMARK  219 active torsions:
REMARK  status: ('A' for Active; 'I' for Inactive)
REMARK    1  A    between atoms: _1  and  _5
REMARK    2  A    between atoms: _5  and  _6
REMARK    3  A    between atoms: _5  and  _8
REMARK    4  A    between atoms: _8  and  _9
REMARK    5  A    between atoms: _12  and  _14
REMARK    6  A    between atoms: _14  and  _15
REMARK    7  A    between atoms: _14  and  _17
REMARK    8  A    between atoms: _20  and  _22
REMARK    9  A    between atoms: _22  and  _23
REMARK   10  A    between atoms: _22  and  _25
REMARK   11  A    between atoms: _25  and  _26
REMARK   12  A    between atoms: _31  and  _33
REMARK   13  A    between atoms: _33  and  _34
REMARK   14  A    between atoms: _33  and  _36
REMARK   15  A    between atoms: _36  and  _37
REMARK   16  A    between atoms: _37  and  _38
REMARK   17  A    between atoms: _43  and  _45
REMARK   18  A    between atoms: _45  and  _46
REMARK   19  A    between atoms: _45  and  _48
REMARK   20  A    between atoms: _48  and  _49
REMARK   21  A    between atoms: _52  and  _54
REMARK   22  A    between atoms: _54  and  _55
REMARK   23  A    between atoms: _54  and  _57
REMARK   24  A    between atoms: _57  and  _58
REMARK   25  A    between atoms: _58  and  _59
REMARK   26  A    between atoms: _59  and  _60
REMARK   27  A    between atoms: _60  and  _61
REMARK   28  A    between atoms: _65  and  _67
REMARK   29  A    between atoms: _67  and  _68
REMARK   30  A    between atoms: _67  and  _70
REMARK   31  A    between atoms: _70  and  _71
REMARK   32  A    between atoms: _71  and  _72
REMARK   33  A    between atoms: _75  and  _77
REMARK   34  A    between atoms: _77  and  _78
REMARK   35  A    between atoms: _77  and  _80
REMARK   36  A    between atoms: _80  and  _81
REMARK   37  A    between atoms: _84  and  _86
REMARK   38  A    between atoms: _86  and  _87
REMARK   39  A    between atoms: _86  and  _89
REMARK   40  A    between atoms: _89  and  _90
REMARK   41  A    between atoms: _95  and  _96
REMARK   42  A    between atoms: _98  and  _100
REMARK   43  A    between atoms: _100  and  _101
REMARK   44  A    between atoms: _100  and  _103
REMARK   45  A    between atoms: _103  and  _104
REMARK   46  A    between atoms: _107  and  _109
REMARK   47  A    between atoms: _109  and  _110
REMARK   48  A    between atoms: _109  and  _112
REMARK   49  A    between atoms: _112  and  _113
REMARK   50  A    between atoms: _116  and  _118
REMARK   51  A    between atoms: _118  and  _119
REMARK   52  A    between atoms: _118  and  _121
REMARK   53  A    between atoms: _124  and  _126
REMARK   54  A    between atoms: _126  and  _127
REMARK   55  A    between atoms: _126  and  _129
REMARK   56  A    between atoms: _129  and  _130
REMARK   57  A    between atoms: _130  and  _131
REMARK   58  A    between atoms: _131  and  _132
REMARK   59  A    between atoms: _141  and  _143
REMARK   60  A    between atoms: _143  and  _144
REMARK   61  A    between atoms: _143  and  _146
REMARK   62  A    between atoms: _146  and  _147
REMARK   63  A    between atoms: _152  and  _154
REMARK   64  A    between atoms: _154  and  _155
REMARK   65  A    between atoms: _154  and  _157
REMARK   66  A    between atoms: _157  and  _158
REMARK   67  A    between atoms: _158  and  _159
REMARK   68  A    between atoms: _162  and  _164
REMARK   69  A    between atoms: _164  and  _165
REMARK   70  A    between atoms: _164  and  _167
REMARK   71  A    between atoms: _167  and  _168
REMARK   72  A    between atoms: _168  and  _169
REMARK   73  A    between atoms: _169  and  _170
REMARK   74  A    between atoms: _170  and  _171
REMARK   75  A    between atoms: _175  and  _177
REMARK   76  A    between atoms: _177  and  _178
REMARK   77  A    between atoms: _177  and  _180
REMARK   78  A    between atoms: _183  and  _185
REMARK   79  A    between atoms: _185  and  _186
REMARK   80  A    between atoms: _185  and  _188
REMARK   81  A    between atoms: _188  and  _189
REMARK   82  A    between atoms: _191  and  _193
REMARK   83  A    between atoms: _193  and  _194
REMARK   84  A    between atoms: _193  and  _196
REMARK   85  A    between atoms: _196  and  _197
REMARK   86  A    between atoms: _199  and  _201
REMARK   87  A    between atoms: _201  and  _202
REMARK   88  A    between atoms: _201  and  _204
REMARK   89  A    between atoms: _204  and  _205
REMARK   90  A    between atoms: _211  and  _213
REMARK   91  A    between atoms: _213  and  _214
REMARK   92  A    between atoms: _213  and  _216
REMARK   93  A    between atoms: _216  and  _217
REMARK   94  A    between atoms: _220  and  _222
REMARK   95  A    between atoms: _222  and  _223
REMARK   96  A    between atoms: _222  and  _225
REMARK   97  A    between atoms: _225  and  _226
REMARK   98  A    between atoms: _229  and  _231
REMARK   99  A    between atoms: _231  and  _232
REMARK  100  A    between atoms: _231  and  _234
REMARK  101  A    between atoms: _234  and  _235
REMARK  102  A    between atoms: _238  and  _240
REMARK  103  A    between atoms: _240  and  _241
REMARK  104  A    between atoms: _240  and  _243
REMARK  105  A    between atoms: _243  and  _244
REMARK  106  A    between atoms: _244  and  _245
REMARK  107  A    between atoms: _247  and  _249
REMARK  108  A    between atoms: _249  and  _250
REMARK  109  A    between atoms: _249  and  _252
REMARK  110  A    between atoms: _252  and  _253
REMARK  111  A    between atoms: _259  and  _261
REMARK  112  A    between atoms: _261  and  _262
REMARK  113  A    between atoms: _261  and  _264
REMARK  114  A    between atoms: _266  and  _268
REMARK  115  A    between atoms: _268  and  _269
REMARK  116  A    between atoms: _272  and  _274
REMARK  117  A    between atoms: _274  and  _275
REMARK  118  A    between atoms: _277  and  _279
REMARK  119  A    between atoms: _279  and  _280
REMARK  120  A    between atoms: _279  and  _282
REMARK  121  A    between atoms: _282  and  _283
REMARK  122  A    between atoms: _283  and  _284
REMARK  123  A    between atoms: _287  and  _289
REMARK  124  A    between atoms: _289  and  _290
REMARK  125  A    between atoms: _289  and  _292
REMARK  126  A    between atoms: _292  and  _293
REMARK  127  A    between atoms: _296  and  _298
REMARK  128  A    between atoms: _298  and  _299
REMARK  129  A    between atoms: _302  and  _304
REMARK  130  A    between atoms: _304  and  _305
REMARK  131  A    between atoms: _304  and  _307
REMARK  132  A    between atoms: _307  and  _308
REMARK  133  A    between atoms: _308  and  _431
REMARK  134  A    between atoms: _309  and  _311
REMARK  135  A    between atoms: _311  and  _312
REMARK  136  A    between atoms: _311  and  _314
REMARK  137  A    between atoms: _314  and  _315
REMARK  138  A    between atoms: _315  and  _316
REMARK  139  A    between atoms: _321  and  _323
REMARK  140  A    between atoms: _323  and  _324
REMARK  141  A    between atoms: _326  and  _328
REMARK  142  A    between atoms: _328  and  _329
REMARK  143  A    between atoms: _328  and  _331
REMARK  144  A    between atoms: _331  and  _332
REMARK  145  A    between atoms: _335  and  _337
REMARK  146  A    between atoms: _337  and  _338
REMARK  147  A    between atoms: _337  and  _340
REMARK  148  A    between atoms: _340  and  _341
REMARK  149  A    between atoms: _343  and  _345
REMARK  150  A    between atoms: _345  and  _346
REMARK  151  A    between atoms: _348  and  _350
REMARK  152  A    between atoms: _350  and  _351
REMARK  153  A    between atoms: _353  and  _355
REMARK  154  A    between atoms: _355  and  _356
REMARK  155  A    between atoms: _355  and  _358
REMARK  156  A    between atoms: _358  and  _359
REMARK  157  A    between atoms: _364  and  _366
REMARK  158  A    between atoms: _366  and  _367
REMARK  159  A    between atoms: _366  and  _369
REMARK  160  A    between atoms: _369  and  _370
REMARK  161  A    between atoms: _373  and  _375
REMARK  162  A    between atoms: _375  and  _376
REMARK  163  A    between atoms: _375  and  _378
REMARK  164  A    between atoms: _381  and  _383
REMARK  165  A    between atoms: _383  and  _384
REMARK  166  A    between atoms: _383  and  _386
REMARK  167  A    between atoms: _386  and  _387
REMARK  168  A    between atoms: _389  and  _391
REMARK  169  A    between atoms: _391  and  _392
REMARK  170  A    between atoms: _391  and  _394
REMARK  171  A    between atoms: _394  and  _395
REMARK  172  A    between atoms: _405  and  _407
REMARK  173  A    between atoms: _407  and  _408
REMARK  174  A    between atoms: _410  and  _412
REMARK  175  A    between atoms: _412  and  _413
REMARK  176  A    between atoms: _412  and  _415
REMARK  177  A    between atoms: _415  and  _416
REMARK  178  A    between atoms: _416  and  _417
REMARK  179  A    between atoms: _420  and  _422
REMARK  180  A    between atoms: _422  and  _423
REMARK  181  A    between atoms: _425  and  _427
REMARK  182  A    between atoms: _427  and  _428
REMARK  183  A    between atoms: _427  and  _430
REMARK  184  A    between atoms: _430  and  _431
REMARK  185  A    between atoms: _432  and  _434
REMARK  186  A    between atoms: _434  and  _435
REMARK  187  A    between atoms: _438  and  _440
REMARK  188  A    between atoms: _440  and  _441
REMARK  189  A    between atoms: _440  and  _443
REMARK  190  A    between atoms: _443  and  _444
REMARK  191  A    between atoms: _444  and  _445
REMARK  192  A    between atoms: _445  and  _446
REMARK  193  A    between atoms: _455  and  _457
REMARK  194  A    between atoms: _457  and  _458
REMARK  195  A    between atoms: _457  and  _460
REMARK  196  A    between atoms: _460  and  _461
REMARK  197  A    between atoms: _461  and  _462
REMARK  198  A    between atoms: _462  and  _463
REMARK  199  A    between atoms: _463  and  _464
REMARK  200  A    between atoms: _468  and  _470
REMARK  201  A    between atoms: _470  and  _471
REMARK  202  A    between atoms: _470  and  _473
REMARK  203  A    between atoms: _473  and  _474
REMARK  204  A    between atoms: _479  and  _480
REMARK  205  A    between atoms: _482  and  _484
REMARK  206  A    between atoms: _484  and  _485
REMARK  207  A    between atoms: _487  and  _489
REMARK  208  A    between atoms: _489  and  _490
REMARK  209  A    between atoms: _489  and  _492
REMARK  210  A    between atoms: _492  and  _493
REMARK  211  A    between atoms: _496  and  _498
REMARK  212  A    between atoms: _498  and  _499
REMARK  213  A    between atoms: _498  and  _501
REMARK  214  A    between atoms: _501  and  _502
REMARK  215  A    between atoms: _507  and  _508
REMARK  216  A    between atoms: _510  and  _512
REMARK  217  A    between atoms: _512  and  _513
REMARK  218  A    between atoms: _512  and  _515
REMARK  219  A    between atoms: _515  and  _516
REMARK                            x       y       z     vdW  Elec       q    Type
REMARK                         _______ _______ _______ _____ _____    ______ ____
ROOT
ATOM      1  CA  SER A   8      12.184  69.162   9.174  0.00  0.00    +0.160 C 
ENDROOT
BRANCH   1   2
ATOM      2  C   SER A   8      12.250  69.644  10.596  0.00  0.00    +0.242 C 
ATOM      3  N   GLY A   9      12.958  68.886  11.429  0.00  0.00    -0.297 N 
ATOM      4  H   GLY A   9      13.326  67.976  11.085  0.00  0.00    +0.150 HD
ATOM      5  O   SER A   8      11.688  70.691  10.921  0.00  0.00    -0.273 OA
BRANCH   3   6
ATOM      6  CA  GLY A   9      13.235  69.271  12.780  0.00  0.00    +0.149 C 
ATOM      7  CB  GLY A   9      14.187  70.525  12.806  0.00  0.00    +0.031 C 
BRANCH   6   8
ATOM      8  C   GLY A   9      11.956  69.486  13.595  0.00  0.00    +0.241 C 
ATOM      9  O   GLY A   9      11.969  70.210  14.590  0.00  0.00    -0.273 OA
ATOM     10  N   GLY A  10      10.872  68.806  13.198  0.00  0.00    -0.298 N 
ATOM     11  H   GLY A  10      10.922  68.212  12.345  0.00  0.00    +0.150 HD
BRANCH  10  12
ATOM     12  CA  GLY A  10       9.623  68.887  13.945  0.00  0.00    +0.137 C 
BRANCH  12  13
ATOM     13  C   GLY A  10       9.720  68.196  15.315  0.00  0.00    +0.227 C 
ATOM     14  O   GLY A  10      10.379  67.134  15.488  0.00  0.00    -0.286 OA
ENDBRANCH  12  13
BRANCH  12  15
ATOM     15  CB  GLY A  10       8.467  68.339  13.124  0.00  0.00    +0.031 C 
BRANCH  15  16
ATOM     16  CG  GLY A  10       8.086  69.240  11.997  0.00  0.00    +0.045 C 
BRANCH  16  17
ATOM     17  CD  GLY A  10       6.802  68.767  11.382  0.00  0.00    +0.174 C 
BRANCH  17  18
ATOM     18  NE  GLY A  10       6.548  69.479  10.152  0.00  0.00    -0.265 N 
ATOM     19  HE  GLY A  10       7.172  70.275   9.910  0.00  0.00    +0.259 HD
ATOM     20  CZ  GLY A  10       5.567  69.178   9.313  0.00  0.00    +0.342 C 
ATOM     21  NH2 GLY A  10       4.731  68.184   9.595  0.00  0.00    -0.292 N 
ATOM     22 HH21 GLY A  10       4.846  67.641  10.475  0.00  0.00    +0.255 HD
ATOM     23 HH22 GLY A  10       3.962  67.949   8.936  0.00  0.00    +0.255 HD
ATOM     24  NH1 GLY A  10       5.413  69.883   8.203  0.00  0.00    -0.292 N 
ATOM     25 HH11 GLY A  10       6.060  70.669   7.992  0.00  0.00    +0.255 HD
ATOM     26 HH12 GLY A  10       4.645  69.651   7.542  0.00  0.00    +0.255 HD
ENDBRANCH  17  18
ENDBRANCH  16  17
ENDBRANCH  15  16
ENDBRANCH  12  15
ENDBRANCH  10  12
ENDBRANCH   6   8
ENDBRANCH   3   6
ENDBRANCH   1   2
BRANCH   1  27
ATOM     27  N   SER A   8      10.791  69.163   8.740  0.00  0.00    -0.296 N 
ATOM     28  H   SER A   8      10.187  69.975   8.981  0.00  0.00    +0.150 HD
ATOM     29  C   ASP A   7      10.271  68.155   8.045  0.00  0.00    +0.243 C 
ATOM     30  O   ASP A   7      10.971  67.236   7.576  0.00  0.00    -0.273 OA
BRANCH  29  31
ATOM     31  CA  ASP A   7       8.761  68.175   7.834  0.00  0.00    +0.176 C 
BRANCH  31  32
ATOM     32  N   ASP A   7       8.245  66.805   7.591  0.00  0.00    -0.295 N 
ATOM     33  C   GLY A   6       8.010  65.999   8.617  0.00  0.00    +0.241 C 
ATOM     34  O   GLY A   6       8.051  66.380   9.792  0.00  0.00    -0.273 OA
ATOM     35  H   ASP A   7       8.068  66.478   6.620  0.00  0.00    +0.150 HD
BRANCH  33  36
ATOM     36  CA  GLY A   6       7.707  64.555   8.284  0.00  0.00    +0.149 C 
BRANCH  36  37
ATOM     37  N   GLY A   6       8.979  63.862   8.221  0.00  0.00    -0.297 N 
ATOM     38  H   GLY A   6       9.300  63.339   9.061  0.00  0.00    +0.150 HD
ATOM     39  C   GLN A   5       9.756  63.863   7.141  0.00  0.00    +0.243 C 
ATOM     40  O   GLN A   5       9.422  64.365   6.052  0.00  0.00    -0.273 OA
BRANCH  39  41
ATOM     41  CA  GLN A   5      11.101  63.177   7.299  0.00  0.00    +0.176 C 
BRANCH  41  42
ATOM     42  N   GLN A   5      11.542  62.725   5.992  0.00  0.00    -0.295 N 
ATOM     43  C   TRP A   4      12.477  61.796   5.835  0.00  0.00    +0.241 C 
ATOM     44  O   TRP A   4      13.127  61.330   6.764  0.00  0.00    -0.273 OA
ATOM     45  H   GLN A   5      11.108  63.146   5.145  0.00  0.00    +0.150 HD
BRANCH  43  46
ATOM     46  CA  TRP A   4      12.723  61.369   4.405  0.00  0.00    +0.153 C 
BRANCH  46  47
ATOM     47  N   TRP A   4      13.970  60.607   4.243  0.00  0.00    -0.297 N 
ATOM     48  H   TRP A   4      14.444  60.195   5.072  0.00  0.00    +0.150 HD
ATOM     49  C   SER A   3      14.485  60.449   3.032  0.00  0.00    +0.243 C 
ATOM     50  O   SER A   3      13.971  60.977   2.024  0.00  0.00    -0.273 OA
BRANCH  49  51
ATOM     51  CA  SER A   3      15.758  59.613   2.908  0.00  0.00    +0.178 C 
BRANCH  51  52
ATOM     52  N   SER A   3      16.909  60.143   3.678  0.00  0.00    -0.295 N 
ATOM     53  H   SER A   3      16.878  60.216   4.715  0.00  0.00    +0.150 HD
ATOM     54  C   VAL A   2      17.992  60.525   2.983  0.00  0.00    +0.241 C 
ATOM     55  O   VAL A   2      17.979  60.638   1.765  0.00  0.00    -0.273 OA
BRANCH  54  56
ATOM     56  CA  VAL A   2      19.239  60.869   3.762  0.00  0.00    +0.148 C 
BRANCH  56  57
ATOM     57  N   VAL A   2      20.316  60.005   3.315  0.00  0.00    -0.297 N 
ATOM     58  C   ILE A   1      20.143  58.680   3.354  0.00  0.00    +0.238 C 
ATOM     59  O   ILE A   1      19.144  58.145   3.884  0.00  0.00    -0.274 OA
ATOM     60  H   VAL A   2      21.209  60.411   2.969  0.00  0.00    +0.150 HD
BRANCH  58  61
ATOM     61  CA  ILE A   1      21.279  57.840   2.808  0.00  0.00    +0.145 C 
BRANCH  61  62
ATOM     62  N   ILE A   1      21.587  56.913   3.900  0.00  0.00    -0.238 NA
ATOM     63  H   ILE A   1      20.829  56.318   4.292  0.00  0.00    +0.142 HD
ENDBRANCH  61  62
BRANCH  61  64
ATOM     64  CB  ILE A   1      20.826  57.105   1.517  0.00  0.00    +0.025 C 
ATOM     65  CG2 ILE A   1      20.422  58.127   0.395  0.00  0.00    +0.002 C 
BRANCH  64  66
ATOM     66  CG1 ILE A   1      21.899  56.139   1.006  0.00  0.00    +0.002 C 
ATOM     67  CD1 ILE A   1      21.335  55.126  -0.001  0.00  0.00    +0.000 C 
ENDBRANCH  64  66
ENDBRANCH  61  64
ENDBRANCH  58  61
ENDBRANCH  56  57
BRANCH  56  68
ATOM     68  CB  VAL A   2      19.588  62.358   3.534  0.00  0.00    +0.027 C 
ATOM     69  CG2 VAL A   2      20.852  62.687   4.312  0.00  0.00    +0.002 C 
ATOM     70  CG1 VAL A   2      18.430  63.238   3.998  0.00  0.00    +0.002 C 
ENDBRANCH  56  68
ENDBRANCH  54  56
ENDBRANCH  51  52
BRANCH  51  71
ATOM     71  CB  SER A   3      15.497  58.142   3.277  0.00  0.00    +0.166 C 
BRANCH  71  72
ATOM     72  OG  SER A   3      14.487  57.565   2.466  0.00  0.00    -0.380 OA
ATOM     73  H   SER A   3      14.766  57.602   1.517  0.00  0.00    +0.211 HD
ENDBRANCH  71  72
ENDBRANCH  51  71
ENDBRANCH  49  51
ENDBRANCH  46  47
BRANCH  46  74
ATOM     74  CB  TRP A   4      11.525  60.559   3.876  0.00  0.00    +0.057 C 
BRANCH  74  75
ATOM     75  CG  TRP A   4      11.256  59.229   4.597  0.00  0.00    -0.002 A 
ATOM     76  CD2 TRP A   4      10.349  59.008   5.675  0.00  0.00    +0.013 A 
ATOM     77  CE3 TRP A   4       9.504  59.834   6.430  0.00  0.00    +0.001 A 
ATOM     78  CZ3 TRP A   4       8.730  59.244   7.470  0.00  0.00    +0.000 A 
ATOM     79  CH2 TRP A   4       8.791  57.854   7.714  0.00  0.00    +0.001 A 
ATOM     80  CZ2 TRP A   4       9.617  57.034   6.977  0.00  0.00    +0.017 A 
ATOM     81  CE2 TRP A   4      10.371  57.614   5.951  0.00  0.00    +0.056 A 
ATOM     82  NE1 TRP A   4      11.250  57.032   5.063  0.00  0.00    -0.352 N 
ATOM     83  HE1 TRP A   4      11.482  56.019   5.017  0.00  0.00    +0.166 HD
ATOM     84  CD1 TRP A   4      11.766  58.001   4.255  0.00  0.00    +0.068 A 
ENDBRANCH  74  75
ENDBRANCH  46  74
ENDBRANCH  43  46
ENDBRANCH  41  42
ENDBRANCH  39  41
ENDBRANCH  36  37
BRANCH  36  85
ATOM     85  CB  GLY A   6       6.812  63.895   9.332  0.00  0.00    +0.041 C 
BRANCH  85  86
ATOM     86  CG  GLY A   6       6.516  62.475   8.915  0.00  0.00    +0.116 C 
BRANCH  86  87
ATOM     87  CD  GLY A   6       5.478  61.817   9.805  0.00  0.00    +0.365 C 
ATOM     88  OE2 GLY A   6       5.789  60.745  10.346  0.00  0.00    -0.246 OA
ATOM     89  OE1 GLY A   6       4.363  62.377   9.942  0.00  0.00    -0.246 OA
ENDBRANCH  86  87
ENDBRANCH  85  86
ENDBRANCH  36  85
ENDBRANCH  33  36
ENDBRANCH  31  32
ENDBRANCH  29  31
ENDBRANCH   1  27
BRANCH   1  90
ATOM     90  CB  SER A   8      13.053  70.091   8.304  0.00  0.00    +0.098 C 
BRANCH  90  91
ATOM     91  SG  SER A   8      12.740  69.864   6.573  0.00  0.00    -0.080 S 
BRANCH  91  92
ATOM     92  SG  TRP A   4      14.005  71.218   5.708  0.00  0.00    -0.080 S 
BRANCH  92  93
ATOM     93  CB  TRP A   4      15.688  70.477   5.786  0.00  0.00    +0.098 C 
BRANCH  93  94
ATOM     94  CA  TRP A   4      15.738  68.985   5.384  0.00  0.00    +0.160 C 
BRANCH  94  97
ATOM     95  C   SER A   3      16.961  67.882   7.144  0.00  0.00    +0.241 C 
ATOM     96  O   SER A   3      15.968  67.909   7.880  0.00  0.00    -0.273 OA
ATOM     97  N   TRP A   4      16.950  68.370   5.915  0.00  0.00    -0.296 N 
ATOM     98  H   TRP A   4      17.806  68.315   5.327  0.00  0.00    +0.150 HD
BRANCH  95  99
ATOM     99  CA  SER A   3      18.251  67.258   7.619  0.00  0.00    +0.149 C 
ATOM    100  CB  SER A   3      18.473  65.918   6.929  0.00  0.00    +0.031 C 
BRANCH  99 103
ATOM    101  C   VAL A   2      18.208  68.054   9.893  0.00  0.00    +0.241 C 
ATOM    102  O   VAL A   2      18.626  69.170   9.539  0.00  0.00    -0.273 OA
ATOM    103  N   SER A   3      18.069  67.051   9.049  0.00  0.00    -0.297 N 
ATOM    104  H   SER A   3      17.828  66.105   9.407  0.00  0.00    +0.150 HD
BRANCH 101 105
ATOM    105  CA  VAL A   2      17.760  67.800  11.326  0.00  0.00    +0.160 C 
BRANCH 105 108
ATOM    106  C   ILE A   1      17.977  68.961  13.444  0.00  0.00    +0.238 C 
ATOM    107  O   ILE A   1      17.494  68.021  14.082  0.00  0.00    -0.274 OA
ATOM    108  N   VAL A   2      18.236  68.902  12.140  0.00  0.00    -0.297 N 
ATOM    109  H   VAL A   2      18.791  69.661  11.696  0.00  0.00    +0.150 HD
BRANCH 106 110
ATOM    110  CA  ILE A   1      18.401  70.243  14.158  0.00  0.00    +0.145 C 
BRANCH 110 111
ATOM    111  N   ILE A   1      17.339  70.637  15.064  0.00  0.00    -0.238 NA
ATOM    112  H   ILE A   1      16.797  69.889  15.543  0.00  0.00    +0.142 HD
ENDBRANCH 110 111
BRANCH 110 113
ATOM    113  CB  ILE A   1      19.681  69.952  14.920  0.00  0.00    +0.038 C 
BRANCH 113 114
ATOM    114  CG  ILE A   1      20.208  71.124  15.711  0.00  0.00    +0.116 C 
BRANCH 114 115
ATOM    115  CD  ILE A   1      21.637  70.929  16.073  0.00  0.00    +0.365 C 
ATOM    116  OE2 ILE A   1      21.908  69.960  16.809  0.00  0.00    -0.246 OA
ATOM    117  OE1 ILE A   1      22.499  71.723  15.590  0.00  0.00    -0.246 OA
ENDBRANCH 114 115
ENDBRANCH 113 114
ENDBRANCH 110 113
ENDBRANCH 106 110
ENDBRANCH 105 108
BRANCH 105 118
ATOM    118  CB  VAL A   2      16.227  67.824  11.365  0.00  0.00    +0.143 C 
BRANCH 118 119
ATOM    119  CG  VAL A   2      15.588  66.541  10.861  0.00  0.00    +0.367 C 
ATOM    120  OD2 VAL A   2      14.331  66.516  10.747  0.00  0.00    -0.246 OA
ATOM    121  OD1 VAL A   2      16.322  65.592  10.542  0.00  0.00    -0.246 OA
ENDBRANCH 118 119
ENDBRANCH 105 118
ENDBRANCH 101 105
ENDBRANCH  99 103
ENDBRANCH  95  99
ENDBRANCH  94  97
BRANCH  94 122
ATOM    122  C   TRP A   4      15.637  68.825   3.877  0.00  0.00    +0.242 C 
ATOM    123  N   GLN A   5      14.622  69.465   3.286  0.00  0.00    -0.297 N 
ATOM    124  H   GLN A   5      13.987  70.052   3.864  0.00  0.00    +0.150 HD
ATOM    125  O   TRP A   4      16.472  68.159   3.241  0.00  0.00    -0.273 OA
BRANCH 123 126
ATOM    126  CA  GLN A   5      14.382  69.361   1.847  0.00  0.00    +0.149 C 
BRANCH 126 127
ATOM    127  C   GLN A   5      15.633  69.782   1.103  0.00  0.00    +0.241 C 
ATOM    128  O   GLN A   5      16.176  70.851   1.362  0.00  0.00    -0.273 OA
ATOM    129  N   GLY A   6      16.079  68.943   0.183  0.00  0.00    -0.295 N 
ATOM    130  H   GLY A   6      15.565  68.056   0.010  0.00  0.00    +0.150 HD
BRANCH 129 131
ATOM    131  CA  GLY A   6      17.272  69.236  -0.590  0.00  0.00    +0.176 C 
BRANCH 131 132
ATOM    132  C   GLY A   6      18.483  68.453  -0.153  0.00  0.00    +0.243 C 
ATOM    133  N   ASP A   7      18.411  67.903   1.056  0.00  0.00    -0.296 N 
ATOM    134  H   ASP A   7      17.549  68.042   1.621  0.00  0.00    +0.150 HD
ATOM    135  O   GLY A   6      19.472  68.354  -0.890  0.00  0.00    -0.273 OA
BRANCH 133 136
ATOM    136  CA  ASP A   7      19.511  67.105   1.620  0.00  0.00    +0.160 C 
BRANCH 136 137
ATOM    137  C   ASP A   7      19.339  65.620   1.267  0.00  0.00    +0.241 C 
ATOM    138  O   ASP A   7      20.288  64.862   1.363  0.00  0.00    -0.273 OA
ATOM    139  N   SER A   8      18.134  65.203   0.908  0.00  0.00    -0.295 N 
ATOM    140  H   SER A   8      17.351  65.878   0.794  0.00  0.00    +0.150 HD
BRANCH 139 141
ATOM    141  CA  SER A   8      17.928  63.782   0.677  0.00  0.00    +0.178 C 
BRANCH 141 142
ATOM    142  C   SER A   8      18.796  63.307  -0.471  0.00  0.00    +0.243 C 
ATOM    143  N   GLY A   9      19.156  62.029  -0.398  0.00  0.00    -0.295 N 
ATOM    144  H   GLY A   9      18.721  61.441   0.341  0.00  0.00    +0.150 HD
ATOM    145  O   SER A   8      19.126  64.073  -1.382  0.00  0.00    -0.273 OA
BRANCH 143 146
ATOM    146  CA  GLY A   9      20.122  61.402  -1.290  0.00  0.00    +0.176 C 
BRANCH 146 147
ATOM    147  C   GLY A   9      21.538  61.494  -0.744  0.00  0.00    +0.243 C 
ATOM    148  N   GLY A  10      21.759  62.432   0.186  0.00  0.00    -0.296 N 
ATOM    149  H   GLY A  10      20.943  62.929   0.596  0.00  0.00    +0.150 HD
ATOM    150  O   GLY A   9      22.403  60.722  -1.151  0.00  0.00    -0.273 OA
BRANCH 148 151
ATOM    151  CA  GLY A  10      23.092  62.784   0.647  0.00  0.00    +0.163 C 
BRANCH 151 152
ATOM    152  C   GLY A  10      23.617  61.833   1.698  0.00  0.00    +0.229 C 
ATOM    153  O   GLY A  10      22.930  60.902   2.081  0.00  0.00    -0.286 OA
ENDBRANCH 151 152
ENDBRANCH 148 151
ENDBRANCH 146 147
ENDBRANCH 143 146
ENDBRANCH 141 142
BRANCH 141 154
ATOM    154  CB  SER A   8      16.467  63.455   0.409  0.00  0.00    +0.166 C 
BRANCH 154 155
ATOM    155  OG  SER A   8      15.946  64.316  -0.578  0.00  0.00    -0.380 OA
ATOM    156  H   SER A   8      16.016  65.253  -0.267  0.00  0.00    +0.211 HD
ENDBRANCH 154 155
ENDBRANCH 141 154
ENDBRANCH 139 141
ENDBRANCH 136 137
BRANCH 136 157
ATOM    157  CB  ASP A   7      19.567  67.190   3.142  0.00  0.00    +0.143 C 
BRANCH 157 158
ATOM    158  CG  ASP A   7      19.983  68.559   3.639  0.00  0.00    +0.367 C 
ATOM    159  OD2 ASP A   7      19.388  69.021   4.638  0.00  0.00    -0.246 OA
ATOM    160  OD1 ASP A   7      20.918  69.130   3.040  0.00  0.00    -0.246 OA
ENDBRANCH 157 158
ENDBRANCH 136 157
ENDBRANCH 133 136
ENDBRANCH 131 132
ENDBRANCH 129 131
ENDBRANCH 126 127
BRANCH 126 161
ATOM    161  CB  GLN A   5      13.249  70.299   1.459  0.00  0.00    +0.039 C 
BRANCH 161 162
ATOM    162  CG  GLN A   5      12.854  70.286  -0.011  0.00  0.00    +0.087 C 
BRANCH 162 163
ATOM    163  CD  GLN A   5      12.605  68.895  -0.550  0.00  0.00    +0.219 C 
ATOM    164  OE1 GLN A   5      11.597  68.256  -0.240  0.00  0.00    -0.275 OA
ATOM    165  NE2 GLN A   5      13.520  68.422  -1.376  0.00  0.00    -0.329 N 
ATOM    166 HE21 GLN A   5      14.355  68.995  -1.610  0.00  0.00    +0.145 HD
ATOM    167 HE22 GLN A   5      13.405  67.476  -1.792  0.00  0.00    +0.145 HD
ENDBRANCH 162 163
ENDBRANCH 161 162
ENDBRANCH 126 161
ENDBRANCH 123 126
ENDBRANCH  94 122
ENDBRANCH  93  94
ENDBRANCH  92  93
ENDBRANCH  91  92
ENDBRANCH  90  91
ENDBRANCH   1  90
TORSDOF 71
REMARK  Name = ../refined-set-2016/2vwl/2vwl_pocket.pdb
REMARK  219 active torsions:
REMARK  status: ('A' for Active; 'I' for Inactive)
REMARK    1  A    between atoms: _1  and  _5
REMARK    2  A    between atoms: _5  and  _6
REMARK    3  A    between atoms: _5  and  _8
REMARK    4  A    between atoms: _8  and  _9
REMARK    5  A    between atoms: _12  and  _14
REMARK    6  A    between atoms: _14  and  _15
REMARK    7  A    between atoms: _14  and  _17
REMARK    8  A    between atoms: _20  and  _22
REMARK    9  A    between atoms: _22  and  _23
REMARK   10  A    between atoms: _22  and  _25
REMARK   11  A    between atoms: _25  and  _26
REMARK   12  A    between atoms: _31  and  _33
REMARK   13  A    between atoms: _33  and  _34
REMARK   14  A    between atoms: _33  and  _36
REMARK   15  A    between atoms: _36  and  _37
REMARK   16  A    between atoms: _37  and  _38
REMARK   17  A    between atoms: _43  and  _45
REMARK   18  A    between atoms: _45  and  _46
REMARK   19  A    between atoms: _45  and  _48
REMARK   20  A    between atoms: _48  and  _49
REMARK   21  A    between atoms: _52  and  _54
REMARK   22  A    between atoms: _54  and  _55
REMARK   23  A    between atoms: _54  and  _57
REMARK   24  A    between atoms: _57  and  _58
REMARK   25  A    between atoms: _58  and  _59
REMARK   26  A    between atoms: _59  and  _60
REMARK   27  A    between atoms: _60  and  _61
REMARK   28  A    between atoms: _65  and  _67
REMARK   29  A    between atoms: _67  and  _68
REMARK   30  A    between atoms: _67  and  _70
REMARK   31  A    between atoms: _70  and  _71
REMARK   32  A    between atoms: _71  and  _72
REMARK   33  A    between atoms: _75  and  _77
REMARK   34  A    between atoms: _77  and  _78
REMARK   35  A    between atoms: _77  and  _80
REMARK   36  A    between atoms: _80  and  _81
REMARK   37  A    between atoms: _84  and  _86
REMARK   38  A    between atoms: _86  and  _87
REMARK   39  A    between atoms: _86  and  _89
REMARK   40  A    between atoms: _89  and  _90
REMARK   41  A    between atoms: _95  and  _96
REMARK   42  A    between atoms: _98  and  _100
REMARK   43  A    between atoms: _100  and  _101
REMARK   44  A    between atoms: _100  and  _103
REMARK   45  A    between atoms: _103  and  _104
REMARK   46  A    between atoms: _107  and  _109
REMARK   47  A    between atoms: _109  and  _110
REMARK   48  A    between atoms: _109  and  _112
REMARK   49  A    between atoms: _112  and  _113
REMARK   50  A    between atoms: _116  and  _118
REMARK   51  A    between atoms: _118  and  _119
REMARK   52  A    between atoms: _118  and  _121
REMARK   53  A    between atoms: _124  and  _126
REMARK   54  A    between atoms: _126  and  _127
REMARK   55  A    between atoms: _126  and  _129
REMARK   56  A    between atoms: _129  and  _130
REMARK   57  A    between atoms: _130  and  _131
REMARK   58  A    between atoms: _131  and  _132
REMARK   59  A    between atoms: _141  and  _143
REMARK   60  A    between atoms: _143  and  _144
REMARK   61  A    between atoms: _143  and  _146
REMARK   62  A    between atoms: _146  and  _147
REMARK   63  A    between atoms: _152  and  _154
REMARK   64  A    between atoms: _154  and  _155
REMARK   65  A    between atoms: _154  and  _157
REMARK   66  A    between atoms: _157  and  _158
REMARK   67  A    between atoms: _158  and  _159
REMARK   68  A    between atoms: _162  and  _164
REMARK   69  A    between atoms: _164  and  _165
REMARK   70  A    between atoms: _164  and  _167
REMARK   71  A    between atoms: _167  and  _168
REMARK   72  A    between atoms: _168  and  _169
REMARK   73  A    between atoms: _169  and  _170
REMARK   74  A    between atoms: _170  and  _171
REMARK   75  A    between atoms: _175  and  _177
REMARK   76  A    between atoms: _177  and  _178
REMARK   77  A    between atoms: _177  and  _180
REMARK   78  A    between atoms: _183  and  _185
REMARK   79  A    between atoms: _185  and  _186
REMARK   80  A    between atoms: _185  and  _188
REMARK   81  A    between atoms: _188  and  _189
REMARK   82  A    between atoms: _191  and  _193
REMARK   83  A    between atoms: _193  and  _194
REMARK   84  A    between atoms: _193  and  _196
REMARK   85  A    between atoms: _196  and  _197
REMARK   86  A    between atoms: _199  and  _201
REMARK   87  A    between atoms: _201  and  _202
REMARK   88  A    between atoms: _201  and  _204
REMARK   89  A    between atoms: _204  and  _205
REMARK   90  A    between atoms: _211  and  _213
REMARK   91  A    between atoms: _213  and  _214
REMARK   92  A    between atoms: _213  and  _216
REMARK   93  A    between atoms: _216  and  _217
REMARK   94  A    between atoms: _220  and  _222
REMARK   95  A    between atoms: _222  and  _223
REMARK   96  A    between atoms: _222  and  _225
REMARK   97  A    between atoms: _225  and  _226
REMARK   98  A    between atoms: _229  and  _231
REMARK   99  A    between atoms: _231  and  _232
REMARK  100  A    between atoms: _231  and  _234
REMARK  101  A    between atoms: _234  and  _235
REMARK  102  A    between atoms: _238  and  _240
REMARK  103  A    between atoms: _240  and  _241
REMARK  104  A    between atoms: _240  and  _243
REMARK  105  A    between atoms: _243  and  _244
REMARK  106  A    between atoms: _244  and  _245
REMARK  107  A    between atoms: _247  and  _249
REMARK  108  A    between atoms: _249  and  _250
REMARK  109  A    between atoms: _249  and  _252
REMARK  110  A    between atoms: _252  and  _253
REMARK  111  A    between atoms: _259  and  _261
REMARK  112  A    between atoms: _261  and  _262
REMARK  113  A    between atoms: _261  and  _264
REMARK  114  A    between atoms: _266  and  _268
REMARK  115  A    between atoms: _268  and  _269
REMARK  116  A    between atoms: _272  and  _274
REMARK  117  A    between atoms: _274  and  _275
REMARK  118  A    between atoms: _277  and  _279
REMARK  119  A    between atoms: _279  and  _280
REMARK  120  A    between atoms: _279  and  _282
REMARK  121  A    between atoms: _282  and  _283
REMARK  122  A    between atoms: _283  and  _284
REMARK  123  A    between atoms: _287  and  _289
REMARK  124  A    between atoms: _289  and  _290
REMARK  125  A    between atoms: _289  and  _292
REMARK  126  A    between atoms: _292  and  _293
REMARK  127  A    between atoms: _296  and  _298
REMARK  128  A    between atoms: _298  and  _299
REMARK  129  A    between atoms: _302  and  _304
REMARK  130  A    between atoms: _304  and  _305
REMARK  131  A    between atoms: _304  and  _307
REMARK  132  A    between atoms: _307  and  _308
REMARK  133  A    between atoms: _308  and  _431
REMARK  134  A    between atoms: _309  and  _311
REMARK  135  A    between atoms: _311  and  _312
REMARK  136  A    between atoms: _311  and  _314
REMARK  137  A    between atoms: _314  and  _315
REMARK  138  A    between atoms: _315  and  _316
REMARK  139  A    between atoms: _321  and  _323
REMARK  140  A    between atoms: _323  and  _324
REMARK  141  A    between atoms: _326  and  _328
REMARK  142  A    between atoms: _328  and  _329
REMARK  143  A    between atoms: _328  and  _331
REMARK  144  A    between atoms: _331  and  _332
REMARK  145  A    between atoms: _335  and  _337
REMARK  146  A    between atoms: _337  and  _338
REMARK  147  A    between atoms: _337  and  _340
REMARK  148  A    between atoms: _340  and  _341
REMARK  149  A    between atoms: _343  and  _345
REMARK  150  A    between atoms: _345  and  _346
REMARK  151  A    between atoms: _348  and  _350
REMARK  152  A    between atoms: _350  and  _351
REMARK  153  A    between atoms: _353  and  _355
REMARK  154  A    between atoms: _355  and  _356
REMARK  155  A    between atoms: _355  and  _358
REMARK  156  A    between atoms: _358  and  _359
REMARK  157  A    between atoms: _364  and  _366
REMARK  158  A    between atoms: _366  and  _367
REMARK  159  A    between atoms: _366  and  _369
REMARK  160  A    between atoms: _369  and  _370
REMARK  161  A    between atoms: _373  and  _375
REMARK  162  A    between atoms: _375  and  _376
REMARK  163  A    between atoms: _375  and  _378
REMARK  164  A    between atoms: _381  and  _383
REMARK  165  A    between atoms: _383  and  _384
REMARK  166  A    between atoms: _383  and  _386
REMARK  167  A    between atoms: _386  and  _387
REMARK  168  A    between atoms: _389  and  _391
REMARK  169  A    between atoms: _391  and  _392
REMARK  170  A    between atoms: _391  and  _394
REMARK  171  A    between atoms: _394  and  _395
REMARK  172  A    between atoms: _405  and  _407
REMARK  173  A    between atoms: _407  and  _408
REMARK  174  A    between atoms: _410  and  _412
REMARK  175  A    between atoms: _412  and  _413
REMARK  176  A    between atoms: _412  and  _415
REMARK  177  A    between atoms: _415  and  _416
REMARK  178  A    between atoms: _416  and  _417
REMARK  179  A    between atoms: _420  and  _422
REMARK  180  A    between atoms: _422  and  _423
REMARK  181  A    between atoms: _425  and  _427
REMARK  182  A    between atoms: _427  and  _428
REMARK  183  A    between atoms: _427  and  _430
REMARK  184  A    between atoms: _430  and  _431
REMARK  185  A    between atoms: _432  and  _434
REMARK  186  A    between atoms: _434  and  _435
REMARK  187  A    between atoms: _438  and  _440
REMARK  188  A    between atoms: _440  and  _441
REMARK  189  A    between atoms: _440  and  _443
REMARK  190  A    between atoms: _443  and  _444
REMARK  191  A    between atoms: _444  and  _445
REMARK  192  A    between atoms: _445  and  _446
REMARK  193  A    between atoms: _455  and  _457
REMARK  194  A    between atoms: _457  and  _458
REMARK  195  A    between atoms: _457  and  _460
REMARK  196  A    between atoms: _460  and  _461
REMARK  197  A    between atoms: _461  and  _462
REMARK  198  A    between atoms: _462  and  _463
REMARK  199  A    between atoms: _463  and  _464
REMARK  200  A    between atoms: _468  and  _470
REMARK  201  A    between atoms: _470  and  _471
REMARK  202  A    between atoms: _470  and  _473
REMARK  203  A    between atoms: _473  and  _474
REMARK  204  A    between atoms: _479  and  _480
REMARK  205  A    between atoms: _482  and  _484
REMARK  206  A    between atoms: _484  and  _485
REMARK  207  A    between atoms: _487  and  _489
REMARK  208  A    between atoms: _489  and  _490
REMARK  209  A    between atoms: _489  and  _492
REMARK  210  A    between atoms: _492  and  _493
REMARK  211  A    between atoms: _496  and  _498
REMARK  212  A    between atoms: _498  and  _499
REMARK  213  A    between atoms: _498  and  _501
REMARK  214  A    between atoms: _501  and  _502
REMARK  215  A    between atoms: _507  and  _508
REMARK  216  A    between atoms: _510  and  _512
REMARK  217  A    between atoms: _512  and  _513
REMARK  218  A    between atoms: _512  and  _515
REMARK  219  A    between atoms: _515  and  _516
REMARK                            x       y       z     vdW  Elec       q    Type
REMARK                         _______ _______ _______ _____ _____    ______ ____
ROOT
ATOM      1  CB  HIS A   1      23.735  59.174   7.052  0.00  0.00    +0.072 C 
ENDROOT
BRANCH   1   2
ATOM      2  CG  HIS A   1      23.780  58.871   8.523  0.00  0.00    +0.082 A 
ATOM      3  CD2 HIS A   1      23.098  59.411   9.564  0.00  0.00    +0.115 A 
ATOM      4  NE2 HIS A   1      23.481  58.734  10.695  0.00  0.00    -0.221 NA
ATOM      5  CE1 HIS A   1      24.351  57.802  10.359  0.00  0.00    +0.199 A 
ATOM      6  ND1 HIS A   1      24.551  57.863   9.053  0.00  0.00    -0.227 NA
ENDBRANCH   1   2
BRANCH   1   7
ATOM      7  CA  HIS A   1      25.021  59.807   6.519  0.00  0.00    +0.139 C 
BRANCH   7   8
ATOM      8  N   HIS A   1      24.976  59.958   5.087  0.00  0.00    -0.239 NA
ATOM      9  H   HIS A   1      24.897  59.109   4.491  0.00  0.00    +0.142 HD
ENDBRANCH   7   8
BRANCH   7  10
ATOM     10  C   HIS A   1      26.212  58.887   6.752  0.00  0.00    +0.224 C 
ATOM     11  O   HIS A   1      26.267  57.762   6.209  0.00  0.00    -0.287 OA
ENDBRANCH   7  10
ENDBRANCH   1   7
TORSDOF 4
REMARK  Name = ../refined-set-2016/2vwl/2vwl_pocket.pdb
REMARK  219 active torsions:
REMARK  status: ('A' for Active; 'I' for Inactive)
REMARK    1  A    between atoms: _1  and  _5
REMARK    2  A    between atoms: _5  and  _6
REMARK    3  A    between atoms: _5  and  _8
REMARK    4  A    between atoms: _8  and  _9
REMARK    5  A    between atoms: _12  and  _14
REMARK    6  A    between atoms: _14  and  _15
REMARK    7  A    between atoms: _14  and  _17
REMARK    8  A    between atoms: _20  and  _22
REMARK    9  A    between atoms: _22  and  _23
REMARK   10  A    between atoms: _22  and  _25
REMARK   11  A    between atoms: _25  and  _26
REMARK   12  A    between atoms: _31  and  _33
REMARK   13  A    between atoms: _33  and  _34
REMARK   14  A    between atoms: _33  and  _36
REMARK   15  A    between atoms: _36  and  _37
REMARK   16  A    between atoms: _37  and  _38
REMARK   17  A    between atoms: _43  and  _45
REMARK   18  A    between atoms: _45  and  _46
REMARK   19  A    between atoms: _45  and  _48
REMARK   20  A    between atoms: _48  and  _49
REMARK   21  A    between atoms: _52  and  _54
REMARK   22  A    between atoms: _54  and  _55
REMARK   23  A    between atoms: _54  and  _57
REMARK   24  A    between atoms: _57  and  _58
REMARK   25  A    between atoms: _58  and  _59
REMARK   26  A    between atoms: _59  and  _60
REMARK   27  A    between atoms: _60  and  _61
REMARK   28  A    between atoms: _65  and  _67
REMARK   29  A    between atoms: _67  and  _68
REMARK   30  A    between atoms: _67  and  _70
REMARK   31  A    between atoms: _70  and  _71
REMARK   32  A    between atoms: _71  and  _72
REMARK   33  A    between atoms: _75  and  _77
REMARK   34  A    between atoms: _77  and  _78
REMARK   35  A    between atoms: _77  and  _80
REMARK   36  A    between atoms: _80  and  _81
REMARK   37  A    between atoms: _84  and  _86
REMARK   38  A    between atoms: _86  and  _87
REMARK   39  A    between atoms: _86  and  _89
REMARK   40  A    between atoms: _89  and  _90
REMARK   41  A    between atoms: _95  and  _96
REMARK   42  A    between atoms: _98  and  _100
REMARK   43  A    between atoms: _100  and  _101
REMARK   44  A    between atoms: _100  and  _103
REMARK   45  A    between atoms: _103  and  _104
REMARK   46  A    between atoms: _107  and  _109
REMARK   47  A    between atoms: _109  and  _110
REMARK   48  A    between atoms: _109  and  _112
REMARK   49  A    between atoms: _112  and  _113
REMARK   50  A    between atoms: _116  and  _118
REMARK   51  A    between atoms: _118  and  _119
REMARK   52  A    between atoms: _118  and  _121
REMARK   53  A    between atoms: _124  and  _126
REMARK   54  A    between atoms: _126  and  _127
REMARK   55  A    between atoms: _126  and  _129
REMARK   56  A    between atoms: _129  and  _130
REMARK   57  A    between atoms: _130  and  _131
REMARK   58  A    between atoms: _131  and  _132
REMARK   59  A    between atoms: _141  and  _143
REMARK   60  A    between atoms: _143  and  _144
REMARK   61  A    between atoms: _143  and  _146
REMARK   62  A    between atoms: _146  and  _147
REMARK   63  A    between atoms: _152  and  _154
REMARK   64  A    between atoms: _154  and  _155
REMARK   65  A    between atoms: _154  and  _157
REMARK   66  A    between atoms: _157  and  _158
REMARK   67  A    between atoms: _158  and  _159
REMARK   68  A    between atoms: _162  and  _164
REMARK   69  A    between atoms: _164  and  _165
REMARK   70  A    between atoms: _164  and  _167
REMARK   71  A    between atoms: _167  and  _168
REMARK   72  A    between atoms: _168  and  _169
REMARK   73  A    between atoms: _169  and  _170
REMARK   74  A    between atoms: _170  and  _171
REMARK   75  A    between atoms: _175  and  _177
REMARK   76  A    between atoms: _177  and  _178
REMARK   77  A    between atoms: _177  and  _180
REMARK   78  A    between atoms: _183  and  _185
REMARK   79  A    between atoms: _185  and  _186
REMARK   80  A    between atoms: _185  and  _188
REMARK   81  A    between atoms: _188  and  _189
REMARK   82  A    between atoms: _191  and  _193
REMARK   83  A    between atoms: _193  and  _194
REMARK   84  A    between atoms: _193  and  _196
REMARK   85  A    between atoms: _196  and  _197
REMARK   86  A    between atoms: _199  and  _201
REMARK   87  A    between atoms: _201  and  _202
REMARK   88  A    between atoms: _201  and  _204
REMARK   89  A    between atoms: _204  and  _205
REMARK   90  A    between atoms: _211  and  _213
REMARK   91  A    between atoms: _213  and  _214
REMARK   92  A    between atoms: _213  and  _216
REMARK   93  A    between atoms: _216  and  _217
REMARK   94  A    between atoms: _220  and  _222
REMARK   95  A    between atoms: _222  and  _223
REMARK   96  A    between atoms: _222  and  _225
REMARK   97  A    between atoms: _225  and  _226
REMARK   98  A    between atoms: _229  and  _231
REMARK   99  A    between atoms: _231  and  _232
REMARK  100  A    between atoms: _231  and  _234
REMARK  101  A    between atoms: _234  and  _235
REMARK  102  A    between atoms: _238  and  _240
REMARK  103  A    between atoms: _240  and  _241
REMARK  104  A    between atoms: _240  and  _243
REMARK  105  A    between atoms: _243  and  _244
REMARK  106  A    between atoms: _244  and  _245
REMARK  107  A    between atoms: _247  and  _249
REMARK  108  A    between atoms: _249  and  _250
REMARK  109  A    between atoms: _249  and  _252
REMARK  110  A    between atoms: _252  and  _253
REMARK  111  A    between atoms: _259  and  _261
REMARK  112  A    between atoms: _261  and  _262
REMARK  113  A    between atoms: _261  and  _264
REMARK  114  A    between atoms: _266  and  _268
REMARK  115  A    between atoms: _268  and  _269
REMARK  116  A    between atoms: _272  and  _274
REMARK  117  A    between atoms: _274  and  _275
REMARK  118  A    between atoms: _277  and  _279
REMARK  119  A    between atoms: _279  and  _280
REMARK  120  A    between atoms: _279  and  _282
REMARK  121  A    between atoms: _282  and  _283
REMARK  122  A    between atoms: _283  and  _284
REMARK  123  A    between atoms: _287  and  _289
REMARK  124  A    between atoms: _289  and  _290
REMARK  125  A    between atoms: _289  and  _292
REMARK  126  A    between atoms: _292  and  _293
REMARK  127  A    between atoms: _296  and  _298
REMARK  128  A    between atoms: _298  and  _299
REMARK  129  A    between atoms: _302  and  _304
REMARK  130  A    between atoms: _304  and  _305
REMARK  131  A    between atoms: _304  and  _307
REMARK  132  A    between atoms: _307  and  _308
REMARK  133  A    between atoms: _308  and  _431
REMARK  134  A    between atoms: _309  and  _311
REMARK  135  A    between atoms: _311  and  _312
REMARK  136  A    between atoms: _311  and  _314
REMARK  137  A    between atoms: _314  and  _315
REMARK  138  A    between atoms: _315  and  _316
REMARK  139  A    between atoms: _321  and  _323
REMARK  140  A    between atoms: _323  and  _324
REMARK  141  A    between atoms: _326  and  _328
REMARK  142  A    between atoms: _328  and  _329
REMARK  143  A    between atoms: _328  and  _331
REMARK  144  A    between atoms: _331  and  _332
REMARK  145  A    between atoms: _335  and  _337
REMARK  146  A    between atoms: _337  and  _338
REMARK  147  A    between atoms: _337  and  _340
REMARK  148  A    between atoms: _340  and  _341
REMARK  149  A    between atoms: _343  and  _345
REMARK  150  A    between atoms: _345  and  _346
REMARK  151  A    between atoms: _348  and  _350
REMARK  152  A    between atoms: _350  and  _351
REMARK  153  A    between atoms: _353  and  _355
REMARK  154  A    between atoms: _355  and  _356
REMARK  155  A    between atoms: _355  and  _358
REMARK  156  A    between atoms: _358  and  _359
REMARK  157  A    between atoms: _364  and  _366
REMARK  158  A    between atoms: _366  and  _367
REMARK  159  A    between atoms: _366  and  _369
REMARK  160  A    between atoms: _369  and  _370
REMARK  161  A    between atoms: _373  and  _375
REMARK  162  A    between atoms: _375  and  _376
REMARK  163  A    between atoms: _375  and  _378
REMARK  164  A    between atoms: _381  and  _383
REMARK  165  A    between atoms: _383  and  _384
REMARK  166  A    between atoms: _383  and  _386
REMARK  167  A    between atoms: _386  and  _387
REMARK  168  A    between atoms: _389  and  _391
REMARK  169  A    between atoms: _391  and  _392
REMARK  170  A    between atoms: _391  and  _394
REMARK  171  A    between atoms: _394  and  _395
REMARK  172  A    between atoms: _405  and  _407
REMARK  173  A    between atoms: _407  and  _408
REMARK  174  A    between atoms: _410  and  _412
REMARK  175  A    between atoms: _412  and  _413
REMARK  176  A    between atoms: _412  and  _415
REMARK  177  A    between atoms: _415  and  _416
REMARK  178  A    between atoms: _416  and  _417
REMARK  179  A    between atoms: _420  and  _422
REMARK  180  A    between atoms: _422  and  _423
REMARK  181  A    between atoms: _425  and  _427
REMARK  182  A    between atoms: _427  and  _428
REMARK  183  A    between atoms: _427  and  _430
REMARK  184  A    between atoms: _430  and  _431
REMARK  185  A    between atoms: _432  and  _434
REMARK  186  A    between atoms: _434  and  _435
REMARK  187  A    between atoms: _438  and  _440
REMARK  188  A    between atoms: _440  and  _441
REMARK  189  A    between atoms: _440  and  _443
REMARK  190  A    between atoms: _443  and  _444
REMARK  191  A    between atoms: _444  and  _445
REMARK  192  A    between atoms: _445  and  _446
REMARK  193  A    between atoms: _455  and  _457
REMARK  194  A    between atoms: _457  and  _458
REMARK  195  A    between atoms: _457  and  _460
REMARK  196  A    between atoms: _460  and  _461
REMARK  197  A    between atoms: _461  and  _462
REMARK  198  A    between atoms: _462  and  _463
REMARK  199  A    between atoms: _463  and  _464
REMARK  200  A    between atoms: _468  and  _470
REMARK  201  A    between atoms: _470  and  _471
REMARK  202  A    between atoms: _470  and  _473
REMARK  203  A    between atoms: _473  and  _474
REMARK  204  A    between atoms: _479  and  _480
REMARK  205  A    between atoms: _482  and  _484
REMARK  206  A    between atoms: _484  and  _485
REMARK  207  A    between atoms: _487  and  _489
REMARK  208  A    between atoms: _489  and  _490
REMARK  209  A    between atoms: _489  and  _492
REMARK  210  A    between atoms: _492  and  _493
REMARK  211  A    between atoms: _496  and  _498
REMARK  212  A    between atoms: _498  and  _499
REMARK  213  A    between atoms: _498  and  _501
REMARK  214  A    between atoms: _501  and  _502
REMARK  215  A    between atoms: _507  and  _508
REMARK  216  A    between atoms: _510  and  _512
REMARK  217  A    between atoms: _512  and  _513
REMARK  218  A    between atoms: _512  and  _515
REMARK  219  A    between atoms: _515  and  _516
REMARK                            x       y       z     vdW  Elec       q    Type
REMARK                         _______ _______ _______ _____ _____    ______ ____
ROOT
ATOM      1  C   GLY A   3      15.179  60.512   9.998  0.00  0.00    +0.243 C 
ATOM      2  O   GLY A   3      15.666  59.719  10.792  0.00  0.00    -0.273 OA
ATOM      3  N   ILE A   4      14.726  60.140   8.812  0.00  0.00    -0.297 N 
ATOM      4  H   ILE A   4      14.379  60.865   8.152  0.00  0.00    +0.150 HD
ENDROOT
BRANCH   3   5
ATOM      5  CA  ILE A   4      14.701  58.751   8.411  0.00  0.00    +0.149 C 
BRANCH   5   6
ATOM      6  C   ILE A   4      15.699  58.562   7.275  0.00  0.00    +0.241 C 
ATOM      7  N   TYR A   5      16.513  57.518   7.436  0.00  0.00    -0.297 N 
ATOM      8  H   TYR A   5      16.333  56.864   8.225  0.00  0.00    +0.150 HD
ATOM      9  O   ILE A   4      15.723  59.341   6.267  0.00  0.00    -0.273 OA
BRANCH   7  10
ATOM     10  CA  TYR A   5      17.643  57.253   6.555  0.00  0.00    +0.153 C 
BRANCH  10  11
ATOM     11  C   TYR A   5      17.555  55.860   6.006  0.00  0.00    +0.241 C 
ATOM     12  O   TYR A   5      17.113  54.939   6.688  0.00  0.00    -0.273 OA
ATOM     13  N   THR A   6      17.979  55.676   4.773  0.00  0.00    -0.296 N 
ATOM     14  H   THR A   6      18.213  56.492   4.172  0.00  0.00    +0.150 HD
BRANCH  13  15
ATOM     15  CA  THR A   6      18.119  54.310   4.252  0.00  0.00    +0.164 C 
BRANCH  15  16
ATOM     16  C   THR A   6      19.246  53.637   5.001  0.00  0.00    +0.229 C 
ATOM     17  O   THR A   6      20.297  54.225   5.154  0.00  0.00    -0.286 OA
ENDBRANCH  15  16
BRANCH  15  18
ATOM     18  CB  THR A   6      18.482  54.340   2.767  0.00  0.00    +0.136 C 
ATOM     19  CG2 THR A   6      18.489  52.913   2.171  0.00  0.00    +0.034 C 
BRANCH  18  20
ATOM     20  OG1 THR A   6      17.512  55.157   2.101  0.00  0.00    -0.382 OA
ATOM     21  HG1 THR A   6      17.722  55.195   1.134  0.00  0.00    +0.210 HD
ENDBRANCH  18  20
ENDBRANCH  15  18
ENDBRANCH  13  15
ENDBRANCH  10  11
BRANCH  10  22
ATOM     22  CB  TYR A   5      18.942  57.406   7.348  0.00  0.00    +0.055 C 
BRANCH  22  23
ATOM     23  CG  TYR A   5      19.149  58.810   7.861  0.00  0.00    -0.020 A 
ATOM     24  CD2 TYR A   5      18.460  59.280   8.979  0.00  0.00    -0.001 A 
ATOM     25  CE2 TYR A   5      18.644  60.591   9.447  0.00  0.00    +0.036 A 
ATOM     26  CZ  TYR A   5      19.515  61.445   8.753  0.00  0.00    +0.134 A 
ATOM     27  CE1 TYR A   5      20.209  60.987   7.665  0.00  0.00    +0.036 A 
ATOM     28  CD1 TYR A   5      20.026  59.674   7.215  0.00  0.00    -0.001 A 
BRANCH  26  29
ATOM     29  OH  TYR A   5      19.720  62.744   9.197  0.00  0.00    -0.506 OA
ATOM     30  HH  TYR A   5      18.858  63.231   9.197  0.00  0.00    +0.292 HD
ENDBRANCH  26  29
ENDBRANCH  22  23
ENDBRANCH  10  22
ENDBRANCH   7  10
ENDBRANCH   5   6
BRANCH   5  31
ATOM     31  CB  ILE A   4      13.286  58.269   7.943  0.00  0.00    +0.027 C 
ATOM     32  CG2 ILE A   4      13.223  56.729   7.915  0.00  0.00    +0.002 C 
BRANCH  31  33
ATOM     33  CG1 ILE A   4      12.162  58.849   8.833  0.00  0.00    +0.002 C 
ATOM     34  CD1 ILE A   4      12.219  58.423  10.299  0.00  0.00    +0.000 C 
ENDBRANCH  31  33
ENDBRANCH   5  31
ENDBRANCH   3   5
BRANCH   1  35
ATOM     35  CA  GLY A   3      15.123  62.002  10.337  0.00  0.00    +0.176 C 
BRANCH  35  37
ATOM     36  C   TYR A   2      13.425  62.211  12.037  0.00  0.00    +0.241 C 
ATOM     37  N   GLY A   3      14.710  62.142  11.738  0.00  0.00    -0.295 N 
ATOM     38  H   GLY A   3      15.425  62.187  12.492  0.00  0.00    +0.150 HD
ATOM     39  O   TYR A   2      12.530  62.227  11.169  0.00  0.00    -0.273 OA
BRANCH  36  40
ATOM     40  CA  TYR A   2      13.092  62.217  13.540  0.00  0.00    +0.153 C 
BRANCH  40  43
ATOM     41  C   LYS A   1      11.215  63.499  14.480  0.00  0.00    +0.238 C 
ATOM     42  O   LYS A   1      11.954  64.391  14.937  0.00  0.00    -0.274 OA
ATOM     43  N   TYR A   2      11.665  62.435  13.811  0.00  0.00    -0.297 N 
ATOM     44  H   TYR A   2      10.978  61.733  13.468  0.00  0.00    +0.150 HD
BRANCH  41  45
ATOM     45  CA  LYS A   1       9.699  63.575  14.666  0.00  0.00    +0.145 C 
BRANCH  45  46
ATOM     46  N   LYS A   1       9.390  64.276  15.915  0.00  0.00    -0.238 NA
ATOM     47  H   LYS A   1       9.853  65.186  16.113  0.00  0.00    +0.142 HD
ENDBRANCH  45  46
BRANCH  45  48
ATOM     48  CB  LYS A   1       9.044  64.269  13.458  0.00  0.00    +0.026 C 
BRANCH  48  49
ATOM     49  CG  LYS A   1       7.503  64.169  13.415  0.00  0.00    -0.000 C 
BRANCH  49  50
ATOM     50  CD  LYS A   1       7.031  62.760  13.049  0.00  0.00    -0.024 C 
BRANCH  50  51
ATOM     51  CE  LYS A   1       5.509  62.596  13.161  0.00  0.00    -0.086 C 
BRANCH  51  52
ATOM     52  NZ  LYS A   1       4.940  62.948  14.522  0.00  0.00    +0.380 N 
ATOM     53  HZ1 LYS A   1       5.366  62.333  15.244  0.00  0.00    -0.089 HD
ATOM     54  HZ2 LYS A   1       5.156  63.942  14.740  0.00  0.00    -0.089 HD
ATOM     55  HZ3 LYS A   1       3.909  62.810  14.512  0.00  0.00    -0.089 HD
ENDBRANCH  51  52
ENDBRANCH  50  51
ENDBRANCH  49  50
ENDBRANCH  48  49
ENDBRANCH  45  48
ENDBRANCH  41  45
ENDBRANCH  40  43
BRANCH  40  56
ATOM     56  CB  TYR A   2      13.546  60.875  14.168  0.00  0.00    +0.055 C 
BRANCH  56  57
ATOM     57  CG  TYR A   2      13.268  60.818  15.667  0.00  0.00    -0.020 A 
ATOM     58  CD2 TYR A   2      14.099  61.473  16.582  0.00  0.00    -0.001 A 
ATOM     59  CE2 TYR A   2      13.835  61.431  17.968  0.00  0.00    +0.036 A 
ATOM     60  CZ  TYR A   2      12.729  60.731  18.421  0.00  0.00    +0.134 A 
ATOM     61  CE1 TYR A   2      11.899  60.059  17.526  0.00  0.00    +0.036 A 
ATOM     62  CD1 TYR A   2      12.161  60.112  16.166  0.00  0.00    -0.001 A 
BRANCH  60  63
ATOM     63  OH  TYR A   2      12.427  60.662  19.772  0.00  0.00    -0.506 OA
ATOM     64  HH  TYR A   2      11.525  61.039  19.927  0.00  0.00    +0.292 HD
ENDBRANCH  60  63
ENDBRANCH  56  57
ENDBRANCH  40  56
ENDBRANCH  36  40
ENDBRANCH  35  37
ENDBRANCH   1  35
TORSDOF 27
REMARK  Name = ../refined-set-2016/2vwl/2vwl_pocket.pdb
REMARK  219 active torsions:
REMARK  status: ('A' for Active; 'I' for Inactive)
REMARK    1  A    between atoms: _1  and  _5
REMARK    2  A    between atoms: _5  and  _6
REMARK    3  A    between atoms: _5  and  _8
REMARK    4  A    between atoms: _8  and  _9
REMARK    5  A    between atoms: _12  and  _14
REMARK    6  A    between atoms: _14  and  _15
REMARK    7  A    between atoms: _14  and  _17
REMARK    8  A    between atoms: _20  and  _22
REMARK    9  A    between atoms: _22  and  _23
REMARK   10  A    between atoms: _22  and  _25
REMARK   11  A    between atoms: _25  and  _26
REMARK   12  A    between atoms: _31  and  _33
REMARK   13  A    between atoms: _33  and  _34
REMARK   14  A    between atoms: _33  and  _36
REMARK   15  A    between atoms: _36  and  _37
REMARK   16  A    between atoms: _37  and  _38
REMARK   17  A    between atoms: _43  and  _45
REMARK   18  A    between atoms: _45  and  _46
REMARK   19  A    between atoms: _45  and  _48
REMARK   20  A    between atoms: _48  and  _49
REMARK   21  A    between atoms: _52  and  _54
REMARK   22  A    between atoms: _54  and  _55
REMARK   23  A    between atoms: _54  and  _57
REMARK   24  A    between atoms: _57  and  _58
REMARK   25  A    between atoms: _58  and  _59
REMARK   26  A    between atoms: _59  and  _60
REMARK   27  A    between atoms: _60  and  _61
REMARK   28  A    between atoms: _65  and  _67
REMARK   29  A    between atoms: _67  and  _68
REMARK   30  A    between atoms: _67  and  _70
REMARK   31  A    between atoms: _70  and  _71
REMARK   32  A    between atoms: _71  and  _72
REMARK   33  A    between atoms: _75  and  _77
REMARK   34  A    between atoms: _77  and  _78
REMARK   35  A    between atoms: _77  and  _80
REMARK   36  A    between atoms: _80  and  _81
REMARK   37  A    between atoms: _84  and  _86
REMARK   38  A    between atoms: _86  and  _87
REMARK   39  A    between atoms: _86  and  _89
REMARK   40  A    between atoms: _89  and  _90
REMARK   41  A    between atoms: _95  and  _96
REMARK   42  A    between atoms: _98  and  _100
REMARK   43  A    between atoms: _100  and  _101
REMARK   44  A    between atoms: _100  and  _103
REMARK   45  A    between atoms: _103  and  _104
REMARK   46  A    between atoms: _107  and  _109
REMARK   47  A    between atoms: _109  and  _110
REMARK   48  A    between atoms: _109  and  _112
REMARK   49  A    between atoms: _112  and  _113
REMARK   50  A    between atoms: _116  and  _118
REMARK   51  A    between atoms: _118  and  _119
REMARK   52  A    between atoms: _118  and  _121
REMARK   53  A    between atoms: _124  and  _126
REMARK   54  A    between atoms: _126  and  _127
REMARK   55  A    between atoms: _126  and  _129
REMARK   56  A    between atoms: _129  and  _130
REMARK   57  A    between atoms: _130  and  _131
REMARK   58  A    between atoms: _131  and  _132
REMARK   59  A    between atoms: _141  and  _143
REMARK   60  A    between atoms: _143  and  _144
REMARK   61  A    between atoms: _143  and  _146
REMARK   62  A    between atoms: _146  and  _147
REMARK   63  A    between atoms: _152  and  _154
REMARK   64  A    between atoms: _154  and  _155
REMARK   65  A    between atoms: _154  and  _157
REMARK   66  A    between atoms: _157  and  _158
REMARK   67  A    between atoms: _158  and  _159
REMARK   68  A    between atoms: _162  and  _164
REMARK   69  A    between atoms: _164  and  _165
REMARK   70  A    between atoms: _164  and  _167
REMARK   71  A    between atoms: _167  and  _168
REMARK   72  A    between atoms: _168  and  _169
REMARK   73  A    between atoms: _169  and  _170
REMARK   74  A    between atoms: _170  and  _171
REMARK   75  A    between atoms: _175  and  _177
REMARK   76  A    between atoms: _177  and  _178
REMARK   77  A    between atoms: _177  and  _180
REMARK   78  A    between atoms: _183  and  _185
REMARK   79  A    between atoms: _185  and  _186
REMARK   80  A    between atoms: _185  and  _188
REMARK   81  A    between atoms: _188  and  _189
REMARK   82  A    between atoms: _191  and  _193
REMARK   83  A    between atoms: _193  and  _194
REMARK   84  A    between atoms: _193  and  _196
REMARK   85  A    between atoms: _196  and  _197
REMARK   86  A    between atoms: _199  and  _201
REMARK   87  A    between atoms: _201  and  _202
REMARK   88  A    between atoms: _201  and  _204
REMARK   89  A    between atoms: _204  and  _205
REMARK   90  A    between atoms: _211  and  _213
REMARK   91  A    between atoms: _213  and  _214
REMARK   92  A    between atoms: _213  and  _216
REMARK   93  A    between atoms: _216  and  _217
REMARK   94  A    between atoms: _220  and  _222
REMARK   95  A    between atoms: _222  and  _223
REMARK   96  A    between atoms: _222  and  _225
REMARK   97  A    between atoms: _225  and  _226
REMARK   98  A    between atoms: _229  and  _231
REMARK   99  A    between atoms: _231  and  _232
REMARK  100  A    between atoms: _231  and  _234
REMARK  101  A    between atoms: _234  and  _235
REMARK  102  A    between atoms: _238  and  _240
REMARK  103  A    between atoms: _240  and  _241
REMARK  104  A    between atoms: _240  and  _243
REMARK  105  A    between atoms: _243  and  _244
REMARK  106  A    between atoms: _244  and  _245
REMARK  107  A    between atoms: _247  and  _249
REMARK  108  A    between atoms: _249  and  _250
REMARK  109  A    between atoms: _249  and  _252
REMARK  110  A    between atoms: _252  and  _253
REMARK  111  A    between atoms: _259  and  _261
REMARK  112  A    between atoms: _261  and  _262
REMARK  113  A    between atoms: _261  and  _264
REMARK  114  A    between atoms: _266  and  _268
REMARK  115  A    between atoms: _268  and  _269
REMARK  116  A    between atoms: _272  and  _274
REMARK  117  A    between atoms: _274  and  _275
REMARK  118  A    between atoms: _277  and  _279
REMARK  119  A    between atoms: _279  and  _280
REMARK  120  A    between atoms: _279  and  _282
REMARK  121  A    between atoms: _282  and  _283
REMARK  122  A    between atoms: _283  and  _284
REMARK  123  A    between atoms: _287  and  _289
REMARK  124  A    between atoms: _289  and  _290
REMARK  125  A    between atoms: _289  and  _292
REMARK  126  A    between atoms: _292  and  _293
REMARK  127  A    between atoms: _296  and  _298
REMARK  128  A    between atoms: _298  and  _299
REMARK  129  A    between atoms: _302  and  _304
REMARK  130  A    between atoms: _304  and  _305
REMARK  131  A    between atoms: _304  and  _307
REMARK  132  A    between atoms: _307  and  _308
REMARK  133  A    between atoms: _308  and  _431
REMARK  134  A    between atoms: _309  and  _311
REMARK  135  A    between atoms: _311  and  _312
REMARK  136  A    between atoms: _311  and  _314
REMARK  137  A    between atoms: _314  and  _315
REMARK  138  A    between atoms: _315  and  _316
REMARK  139  A    between atoms: _321  and  _323
REMARK  140  A    between atoms: _323  and  _324
REMARK  141  A    between atoms: _326  and  _328
REMARK  142  A    between atoms: _328  and  _329
REMARK  143  A    between atoms: _328  and  _331
REMARK  144  A    between atoms: _331  and  _332
REMARK  145  A    between atoms: _335  and  _337
REMARK  146  A    between atoms: _337  and  _338
REMARK  147  A    between atoms: _337  and  _340
REMARK  148  A    between atoms: _340  and  _341
REMARK  149  A    between atoms: _343  and  _345
REMARK  150  A    between atoms: _345  and  _346
REMARK  151  A    between atoms: _348  and  _350
REMARK  152  A    between atoms: _350  and  _351
REMARK  153  A    between atoms: _353  and  _355
REMARK  154  A    between atoms: _355  and  _356
REMARK  155  A    between atoms: _355  and  _358
REMARK  156  A    between atoms: _358  and  _359
REMARK  157  A    between atoms: _364  and  _366
REMARK  158  A    between atoms: _366  and  _367
REMARK  159  A    between atoms: _366  and  _369
REMARK  160  A    between atoms: _369  and  _370
REMARK  161  A    between atoms: _373  and  _375
REMARK  162  A    between atoms: _375  and  _376
REMARK  163  A    between atoms: _375  and  _378
REMARK  164  A    between atoms: _381  and  _383
REMARK  165  A    between atoms: _383  and  _384
REMARK  166  A    between atoms: _383  and  _386
REMARK  167  A    between atoms: _386  and  _387
REMARK  168  A    between atoms: _389  and  _391
REMARK  169  A    between atoms: _391  and  _392
REMARK  170  A    between atoms: _391  and  _394
REMARK  171  A    between atoms: _394  and  _395
REMARK  172  A    between atoms: _405  and  _407
REMARK  173  A    between atoms: _407  and  _408
REMARK  174  A    between atoms: _410  and  _412
REMARK  175  A    between atoms: _412  and  _413
REMARK  176  A    between atoms: _412  and  _415
REMARK  177  A    between atoms: _415  and  _416
REMARK  178  A    between atoms: _416  and  _417
REMARK  179  A    between atoms: _420  and  _422
REMARK  180  A    between atoms: _422  and  _423
REMARK  181  A    between atoms: _425  and  _427
REMARK  182  A    between atoms: _427  and  _428
REMARK  183  A    between atoms: _427  and  _430
REMARK  184  A    between atoms: _430  and  _431
REMARK  185  A    between atoms: _432  and  _434
REMARK  186  A    between atoms: _434  and  _435
REMARK  187  A    between atoms: _438  and  _440
REMARK  188  A    between atoms: _440  and  _441
REMARK  189  A    between atoms: _440  and  _443
REMARK  190  A    between atoms: _443  and  _444
REMARK  191  A    between atoms: _444  and  _445
REMARK  192  A    between atoms: _445  and  _446
REMARK  193  A    between atoms: _455  and  _457
REMARK  194  A    between atoms: _457  and  _458
REMARK  195  A    between atoms: _457  and  _460
REMARK  196  A    between atoms: _460  and  _461
REMARK  197  A    between atoms: _461  and  _462
REMARK  198  A    between atoms: _462  and  _463
REMARK  199  A    between atoms: _463  and  _464
REMARK  200  A    between atoms: _468  and  _470
REMARK  201  A    between atoms: _470  and  _471
REMARK  202  A    between atoms: _470  and  _473
REMARK  203  A    between atoms: _473  and  _474
REMARK  204  A    between atoms: _479  and  _480
REMARK  205  A    between atoms: _482  and  _484
REMARK  206  A    between atoms: _484  and  _485
REMARK  207  A    between atoms: _487  and  _489
REMARK  208  A    between atoms: _489  and  _490
REMARK  209  A    between atoms: _489  and  _492
REMARK  210  A    between atoms: _492  and  _493
REMARK  211  A    between atoms: _496  and  _498
REMARK  212  A    between atoms: _498  and  _499
REMARK  213  A    between atoms: _498  and  _501
REMARK  214  A    between atoms: _501  and  _502
REMARK  215  A    between atoms: _507  and  _508
REMARK  216  A    between atoms: _510  and  _512
REMARK  217  A    between atoms: _512  and  _513
REMARK  218  A    between atoms: _512  and  _515
REMARK  219  A    between atoms: _515  and  _516
REMARK                            x       y       z     vdW  Elec       q    Type
REMARK                         _______ _______ _______ _____ _____    ______ ____
ROOT
ATOM      1  O   HOH     1       6.238  49.900   4.385  0.00  0.00    +0.000 OA
ENDROOT
TORSDOF 0
REMARK  Name = ../refined-set-2016/2vwl/2vwl_pocket.pdb
REMARK  219 active torsions:
REMARK  status: ('A' for Active; 'I' for Inactive)
REMARK    1  A    between atoms: _1  and  _5
REMARK    2  A    between atoms: _5  and  _6
REMARK    3  A    between atoms: _5  and  _8
REMARK    4  A    between atoms: _8  and  _9
REMARK    5  A    between atoms: _12  and  _14
REMARK    6  A    between atoms: _14  and  _15
REMARK    7  A    between atoms: _14  and  _17
REMARK    8  A    between atoms: _20  and  _22
REMARK    9  A    between atoms: _22  and  _23
REMARK   10  A    between atoms: _22  and  _25
REMARK   11  A    between atoms: _25  and  _26
REMARK   12  A    between atoms: _31  and  _33
REMARK   13  A    between atoms: _33  and  _34
REMARK   14  A    between atoms: _33  and  _36
REMARK   15  A    between atoms: _36  and  _37
REMARK   16  A    between atoms: _37  and  _38
REMARK   17  A    between atoms: _43  and  _45
REMARK   18  A    between atoms: _45  and  _46
REMARK   19  A    between atoms: _45  and  _48
REMARK   20  A    between atoms: _48  and  _49
REMARK   21  A    between atoms: _52  and  _54
REMARK   22  A    between atoms: _54  and  _55
REMARK   23  A    between atoms: _54  and  _57
REMARK   24  A    between atoms: _57  and  _58
REMARK   25  A    between atoms: _58  and  _59
REMARK   26  A    between atoms: _59  and  _60
REMARK   27  A    between atoms: _60  and  _61
REMARK   28  A    between atoms: _65  and  _67
REMARK   29  A    between atoms: _67  and  _68
REMARK   30  A    between atoms: _67  and  _70
REMARK   31  A    between atoms: _70  and  _71
REMARK   32  A    between atoms: _71  and  _72
REMARK   33  A    between atoms: _75  and  _77
REMARK   34  A    between atoms: _77  and  _78
REMARK   35  A    between atoms: _77  and  _80
REMARK   36  A    between atoms: _80  and  _81
REMARK   37  A    between atoms: _84  and  _86
REMARK   38  A    between atoms: _86  and  _87
REMARK   39  A    between atoms: _86  and  _89
REMARK   40  A    between atoms: _89  and  _90
REMARK   41  A    between atoms: _95  and  _96
REMARK   42  A    between atoms: _98  and  _100
REMARK   43  A    between atoms: _100  and  _101
REMARK   44  A    between atoms: _100  and  _103
REMARK   45  A    between atoms: _103  and  _104
REMARK   46  A    between atoms: _107  and  _109
REMARK   47  A    between atoms: _109  and  _110
REMARK   48  A    between atoms: _109  and  _112
REMARK   49  A    between atoms: _112  and  _113
REMARK   50  A    between atoms: _116  and  _118
REMARK   51  A    between atoms: _118  and  _119
REMARK   52  A    between atoms: _118  and  _121
REMARK   53  A    between atoms: _124  and  _126
REMARK   54  A    between atoms: _126  and  _127
REMARK   55  A    between atoms: _126  and  _129
REMARK   56  A    between atoms: _129  and  _130
REMARK   57  A    between atoms: _130  and  _131
REMARK   58  A    between atoms: _131  and  _132
REMARK   59  A    between atoms: _141  and  _143
REMARK   60  A    between atoms: _143  and  _144
REMARK   61  A    between atoms: _143  and  _146
REMARK   62  A    between atoms: _146  and  _147
REMARK   63  A    between atoms: _152  and  _154
REMARK   64  A    between atoms: _154  and  _155
REMARK   65  A    between atoms: _154  and  _157
REMARK   66  A    between atoms: _157  and  _158
REMARK   67  A    between atoms: _158  and  _159
REMARK   68  A    between atoms: _162  and  _164
REMARK   69  A    between atoms: _164  and  _165
REMARK   70  A    between atoms: _164  and  _167
REMARK   71  A    between atoms: _167  and  _168
REMARK   72  A    between atoms: _168  and  _169
REMARK   73  A    between atoms: _169  and  _170
REMARK   74  A    between atoms: _170  and  _171
REMARK   75  A    between atoms: _175  and  _177
REMARK   76  A    between atoms: _177  and  _178
REMARK   77  A    between atoms: _177  and  _180
REMARK   78  A    between atoms: _183  and  _185
REMARK   79  A    between atoms: _185  and  _186
REMARK   80  A    between atoms: _185  and  _188
REMARK   81  A    between atoms: _188  and  _189
REMARK   82  A    between atoms: _191  and  _193
REMARK   83  A    between atoms: _193  and  _194
REMARK   84  A    between atoms: _193  and  _196
REMARK   85  A    between atoms: _196  and  _197
REMARK   86  A    between atoms: _199  and  _201
REMARK   87  A    between atoms: _201  and  _202
REMARK   88  A    between atoms: _201  and  _204
REMARK   89  A    between atoms: _204  and  _205
REMARK   90  A    between atoms: _211  and  _213
REMARK   91  A    between atoms: _213  and  _214
REMARK   92  A    between atoms: _213  and  _216
REMARK   93  A    between atoms: _216  and  _217
REMARK   94  A    between atoms: _220  and  _222
REMARK   95  A    between atoms: _222  and  _223
REMARK   96  A    between atoms: _222  and  _225
REMARK   97  A    between atoms: _225  and  _226
REMARK   98  A    between atoms: _229  and  _231
REMARK   99  A    between atoms: _231  and  _232
REMARK  100  A    between atoms: _231  and  _234
REMARK  101  A    between atoms: _234  and  _235
REMARK  102  A    between atoms: _238  and  _240
REMARK  103  A    between atoms: _240  and  _241
REMARK  104  A    between atoms: _240  and  _243
REMARK  105  A    between atoms: _243  and  _244
REMARK  106  A    between atoms: _244  and  _245
REMARK  107  A    between atoms: _247  and  _249
REMARK  108  A    between atoms: _249  and  _250
REMARK  109  A    between atoms: _249  and  _252
REMARK  110  A    between atoms: _252  and  _253
REMARK  111  A    between atoms: _259  and  _261
REMARK  112  A    between atoms: _261  and  _262
REMARK  113  A    between atoms: _261  and  _264
REMARK  114  A    between atoms: _266  and  _268
REMARK  115  A    between atoms: _268  and  _269
REMARK  116  A    between atoms: _272  and  _274
REMARK  117  A    between atoms: _274  and  _275
REMARK  118  A    between atoms: _277  and  _279
REMARK  119  A    between atoms: _279  and  _280
REMARK  120  A    between atoms: _279  and  _282
REMARK  121  A    between atoms: _282  and  _283
REMARK  122  A    between atoms: _283  and  _284
REMARK  123  A    between atoms: _287  and  _289
REMARK  124  A    between atoms: _289  and  _290
REMARK  125  A    between atoms: _289  and  _292
REMARK  126  A    between atoms: _292  and  _293
REMARK  127  A    between atoms: _296  and  _298
REMARK  128  A    between atoms: _298  and  _299
REMARK  129  A    between atoms: _302  and  _304
REMARK  130  A    between atoms: _304  and  _305
REMARK  131  A    between atoms: _304  and  _307
REMARK  132  A    between atoms: _307  and  _308
REMARK  133  A    between atoms: _308  and  _431
REMARK  134  A    between atoms: _309  and  _311
REMARK  135  A    between atoms: _311  and  _312
REMARK  136  A    between atoms: _311  and  _314
REMARK  137  A    between atoms: _314  and  _315
REMARK  138  A    between atoms: _315  and  _316
REMARK  139  A    between atoms: _321  and  _323
REMARK  140  A    between atoms: _323  and  _324
REMARK  141  A    between atoms: _326  and  _328
REMARK  142  A    between atoms: _328  and  _329
REMARK  143  A    between atoms: _328  and  _331
REMARK  144  A    between atoms: _331  and  _332
REMARK  145  A    between atoms: _335  and  _337
REMARK  146  A    between atoms: _337  and  _338
REMARK  147  A    between atoms: _337  and  _340
REMARK  148  A    between atoms: _340  and  _341
REMARK  149  A    between atoms: _343  and  _345
REMARK  150  A    between atoms: _345  and  _346
REMARK  151  A    between atoms: _348  and  _350
REMARK  152  A    between atoms: _350  and  _351
REMARK  153  A    between atoms: _353  and  _355
REMARK  154  A    between atoms: _355  and  _356
REMARK  155  A    between atoms: _355  and  _358
REMARK  156  A    between atoms: _358  and  _359
REMARK  157  A    between atoms: _364  and  _366
REMARK  158  A    between atoms: _366  and  _367
REMARK  159  A    between atoms: _366  and  _369
REMARK  160  A    between atoms: _369  and  _370
REMARK  161  A    between atoms: _373  and  _375
REMARK  162  A    between atoms: _375  and  _376
REMARK  163  A    between atoms: _375  and  _378
REMARK  164  A    between atoms: _381  and  _383
REMARK  165  A    between atoms: _383  and  _384
REMARK  166  A    between atoms: _383  and  _386
REMARK  167  A    between atoms: _386  and  _387
REMARK  168  A    between atoms: _389  and  _391
REMARK  169  A    between atoms: _391  and  _392
REMARK  170  A    between atoms: _391  and  _394
REMARK  171  A    between atoms: _394  and  _395
REMARK  172  A    between atoms: _405  and  _407
REMARK  173  A    between atoms: _407  and  _408
REMARK  174  A    between atoms: _410  and  _412
REMARK  175  A    between atoms: _412  and  _413
REMARK  176  A    between atoms: _412  and  _415
REMARK  177  A    between atoms: _415  and  _416
REMARK  178  A    between atoms: _416  and  _417
REMARK  179  A    between atoms: _420  and  _422
REMARK  180  A    between atoms: _422  and  _423
REMARK  181  A    between atoms: _425  and  _427
REMARK  182  A    between atoms: _427  and  _428
REMARK  183  A    between atoms: _427  and  _430
REMARK  184  A    between atoms: _430  and  _431
REMARK  185  A    between atoms: _432  and  _434
REMARK  186  A    between atoms: _434  and  _435
REMARK  187  A    between atoms: _438  and  _440
REMARK  188  A    between atoms: _440  and  _441
REMARK  189  A    between atoms: _440  and  _443
REMARK  190  A    between atoms: _443  and  _444
REMARK  191  A    between atoms: _444  and  _445
REMARK  192  A    between atoms: _445  and  _446
REMARK  193  A    between atoms: _455  and  _457
REMARK  194  A    between atoms: _457  and  _458
REMARK  195  A    between atoms: _457  and  _460
REMARK  196  A    between atoms: _460  and  _461
REMARK  197  A    between atoms: _461  and  _462
REMARK  198  A    between atoms: _462  and  _463
REMARK  199  A    between atoms: _463  and  _464
REMARK  200  A    between atoms: _468  and  _470
REMARK  201  A    between atoms: _470  and  _471
REMARK  202  A    between atoms: _470  and  _473
REMARK  203  A    between atoms: _473  and  _474
REMARK  204  A    between atoms: _479  and  _480
REMARK  205  A    between atoms: _482  and  _484
REMARK  206  A    between atoms: _484  and  _485
REMARK  207  A    between atoms: _487  and  _489
REMARK  208  A    between atoms: _489  and  _490
REMARK  209  A    between atoms: _489  and  _492
REMARK  210  A    between atoms: _492  and  _493
REMARK  211  A    between atoms: _496  and  _498
REMARK  212  A    between atoms: _498  and  _499
REMARK  213  A    between atoms: _498  and  _501
REMARK  214  A    between atoms: _501  and  _502
REMARK  215  A    between atoms: _507  and  _508
REMARK  216  A    between atoms: _510  and  _512
REMARK  217  A    between atoms: _512  and  _513
REMARK  218  A    between atoms: _512  and  _515
REMARK  219  A    between atoms: _515  and  _516
REMARK                            x       y       z     vdW  Elec       q    Type
REMARK                         _______ _______ _______ _____ _____    ______ ____
ROOT
ATOM      1  O   HOH     1      11.212  62.398  -5.215  0.00  0.00    +0.000 OA
ENDROOT
TORSDOF 0
REMARK  Name = ../refined-set-2016/2vwl/2vwl_pocket.pdb
REMARK  219 active torsions:
REMARK  status: ('A' for Active; 'I' for Inactive)
REMARK    1  A    between atoms: _1  and  _5
REMARK    2  A    between atoms: _5  and  _6
REMARK    3  A    between atoms: _5  and  _8
REMARK    4  A    between atoms: _8  and  _9
REMARK    5  A    between atoms: _12  and  _14
REMARK    6  A    between atoms: _14  and  _15
REMARK    7  A    between atoms: _14  and  _17
REMARK    8  A    between atoms: _20  and  _22
REMARK    9  A    between atoms: _22  and  _23
REMARK   10  A    between atoms: _22  and  _25
REMARK   11  A    between atoms: _25  and  _26
REMARK   12  A    between atoms: _31  and  _33
REMARK   13  A    between atoms: _33  and  _34
REMARK   14  A    between atoms: _33  and  _36
REMARK   15  A    between atoms: _36  and  _37
REMARK   16  A    between atoms: _37  and  _38
REMARK   17  A    between atoms: _43  and  _45
REMARK   18  A    between atoms: _45  and  _46
REMARK   19  A    between atoms: _45  and  _48
REMARK   20  A    between atoms: _48  and  _49
REMARK   21  A    between atoms: _52  and  _54
REMARK   22  A    between atoms: _54  and  _55
REMARK   23  A    between atoms: _54  and  _57
REMARK   24  A    between atoms: _57  and  _58
REMARK   25  A    between atoms: _58  and  _59
REMARK   26  A    between atoms: _59  and  _60
REMARK   27  A    between atoms: _60  and  _61
REMARK   28  A    between atoms: _65  and  _67
REMARK   29  A    between atoms: _67  and  _68
REMARK   30  A    between atoms: _67  and  _70
REMARK   31  A    between atoms: _70  and  _71
REMARK   32  A    between atoms: _71  and  _72
REMARK   33  A    between atoms: _75  and  _77
REMARK   34  A    between atoms: _77  and  _78
REMARK   35  A    between atoms: _77  and  _80
REMARK   36  A    between atoms: _80  and  _81
REMARK   37  A    between atoms: _84  and  _86
REMARK   38  A    between atoms: _86  and  _87
REMARK   39  A    between atoms: _86  and  _89
REMARK   40  A    between atoms: _89  and  _90
REMARK   41  A    between atoms: _95  and  _96
REMARK   42  A    between atoms: _98  and  _100
REMARK   43  A    between atoms: _100  and  _101
REMARK   44  A    between atoms: _100  and  _103
REMARK   45  A    between atoms: _103  and  _104
REMARK   46  A    between atoms: _107  and  _109
REMARK   47  A    between atoms: _109  and  _110
REMARK   48  A    between atoms: _109  and  _112
REMARK   49  A    between atoms: _112  and  _113
REMARK   50  A    between atoms: _116  and  _118
REMARK   51  A    between atoms: _118  and  _119
REMARK   52  A    between atoms: _118  and  _121
REMARK   53  A    between atoms: _124  and  _126
REMARK   54  A    between atoms: _126  and  _127
REMARK   55  A    between atoms: _126  and  _129
REMARK   56  A    between atoms: _129  and  _130
REMARK   57  A    between atoms: _130  and  _131
REMARK   58  A    between atoms: _131  and  _132
REMARK   59  A    between atoms: _141  and  _143
REMARK   60  A    between atoms: _143  and  _144
REMARK   61  A    between atoms: _143  and  _146
REMARK   62  A    between atoms: _146  and  _147
REMARK   63  A    between atoms: _152  and  _154
REMARK   64  A    between atoms: _154  and  _155
REMARK   65  A    between atoms: _154  and  _157
REMARK   66  A    between atoms: _157  and  _158
REMARK   67  A    between atoms: _158  and  _159
REMARK   68  A    between atoms: _162  and  _164
REMARK   69  A    between atoms: _164  and  _165
REMARK   70  A    between atoms: _164  and  _167
REMARK   71  A    between atoms: _167  and  _168
REMARK   72  A    between atoms: _168  and  _169
REMARK   73  A    between atoms: _169  and  _170
REMARK   74  A    between atoms: _170  and  _171
REMARK   75  A    between atoms: _175  and  _177
REMARK   76  A    between atoms: _177  and  _178
REMARK   77  A    between atoms: _177  and  _180
REMARK   78  A    between atoms: _183  and  _185
REMARK   79  A    between atoms: _185  and  _186
REMARK   80  A    between atoms: _185  and  _188
REMARK   81  A    between atoms: _188  and  _189
REMARK   82  A    between atoms: _191  and  _193
REMARK   83  A    between atoms: _193  and  _194
REMARK   84  A    between atoms: _193  and  _196
REMARK   85  A    between atoms: _196  and  _197
REMARK   86  A    between atoms: _199  and  _201
REMARK   87  A    between atoms: _201  and  _202
REMARK   88  A    between atoms: _201  and  _204
REMARK   89  A    between atoms: _204  and  _205
REMARK   90  A    between atoms: _211  and  _213
REMARK   91  A    between atoms: _213  and  _214
REMARK   92  A    between atoms: _213  and  _216
REMARK   93  A    between atoms: _216  and  _217
REMARK   94  A    between atoms: _220  and  _222
REMARK   95  A    between atoms: _222  and  _223
REMARK   96  A    between atoms: _222  and  _225
REMARK   97  A    between atoms: _225  and  _226
REMARK   98  A    between atoms: _229  and  _231
REMARK   99  A    between atoms: _231  and  _232
REMARK  100  A    between atoms: _231  and  _234
REMARK  101  A    between atoms: _234  and  _235
REMARK  102  A    between atoms: _238  and  _240
REMARK  103  A    between atoms: _240  and  _241
REMARK  104  A    between atoms: _240  and  _243
REMARK  105  A    between atoms: _243  and  _244
REMARK  106  A    between atoms: _244  and  _245
REMARK  107  A    between atoms: _247  and  _249
REMARK  108  A    between atoms: _249  and  _250
REMARK  109  A    between atoms: _249  and  _252
REMARK  110  A    between atoms: _252  and  _253
REMARK  111  A    between atoms: _259  and  _261
REMARK  112  A    between atoms: _261  and  _262
REMARK  113  A    between atoms: _261  and  _264
REMARK  114  A    between atoms: _266  and  _268
REMARK  115  A    between atoms: _268  and  _269
REMARK  116  A    between atoms: _272  and  _274
REMARK  117  A    between atoms: _274  and  _275
REMARK  118  A    between atoms: _277  and  _279
REMARK  119  A    between atoms: _279  and  _280
REMARK  120  A    between atoms: _279  and  _282
REMARK  121  A    between atoms: _282  and  _283
REMARK  122  A    between atoms: _283  and  _284
REMARK  123  A    between atoms: _287  and  _289
REMARK  124  A    between atoms: _289  and  _290
REMARK  125  A    between atoms: _289  and  _292
REMARK  126  A    between atoms: _292  and  _293
REMARK  127  A    between atoms: _296  and  _298
REMARK  128  A    between atoms: _298  and  _299
REMARK  129  A    between atoms: _302  and  _304
REMARK  130  A    between atoms: _304  and  _305
REMARK  131  A    between atoms: _304  and  _307
REMARK  132  A    between atoms: _307  and  _308
REMARK  133  A    between atoms: _308  and  _431
REMARK  134  A    between atoms: _309  and  _311
REMARK  135  A    between atoms: _311  and  _312
REMARK  136  A    between atoms: _311  and  _314
REMARK  137  A    between atoms: _314  and  _315
REMARK  138  A    between atoms: _315  and  _316
REMARK  139  A    between atoms: _321  and  _323
REMARK  140  A    between atoms: _323  and  _324
REMARK  141  A    between atoms: _326  and  _328
REMARK  142  A    between atoms: _328  and  _329
REMARK  143  A    between atoms: _328  and  _331
REMARK  144  A    between atoms: _331  and  _332
REMARK  145  A    between atoms: _335  and  _337
REMARK  146  A    between atoms: _337  and  _338
REMARK  147  A    between atoms: _337  and  _340
REMARK  148  A    between atoms: _340  and  _341
REMARK  149  A    between atoms: _343  and  _345
REMARK  150  A    between atoms: _345  and  _346
REMARK  151  A    between atoms: _348  and  _350
REMARK  152  A    between atoms: _350  and  _351
REMARK  153  A    between atoms: _353  and  _355
REMARK  154  A    between atoms: _355  and  _356
REMARK  155  A    between atoms: _355  and  _358
REMARK  156  A    between atoms: _358  and  _359
REMARK  157  A    between atoms: _364  and  _366
REMARK  158  A    between atoms: _366  and  _367
REMARK  159  A    between atoms: _366  and  _369
REMARK  160  A    between atoms: _369  and  _370
REMARK  161  A    between atoms: _373  and  _375
REMARK  162  A    between atoms: _375  and  _376
REMARK  163  A    between atoms: _375  and  _378
REMARK  164  A    between atoms: _381  and  _383
REMARK  165  A    between atoms: _383  and  _384
REMARK  166  A    between atoms: _383  and  _386
REMARK  167  A    between atoms: _386  and  _387
REMARK  168  A    between atoms: _389  and  _391
REMARK  169  A    between atoms: _391  and  _392
REMARK  170  A    between atoms: _391  and  _394
REMARK  171  A    between atoms: _394  and  _395
REMARK  172  A    between atoms: _405  and  _407
REMARK  173  A    between atoms: _407  and  _408
REMARK  174  A    between atoms: _410  and  _412
REMARK  175  A    between atoms: _412  and  _413
REMARK  176  A    between atoms: _412  and  _415
REMARK  177  A    between atoms: _415  and  _416
REMARK  178  A    between atoms: _416  and  _417
REMARK  179  A    between atoms: _420  and  _422
REMARK  180  A    between atoms: _422  and  _423
REMARK  181  A    between atoms: _425  and  _427
REMARK  182  A    between atoms: _427  and  _428
REMARK  183  A    between atoms: _427  and  _430
REMARK  184  A    between atoms: _430  and  _431
REMARK  185  A    between atoms: _432  and  _434
REMARK  186  A    between atoms: _434  and  _435
REMARK  187  A    between atoms: _438  and  _440
REMARK  188  A    between atoms: _440  and  _441
REMARK  189  A    between atoms: _440  and  _443
REMARK  190  A    between atoms: _443  and  _444
REMARK  191  A    between atoms: _444  and  _445
REMARK  192  A    between atoms: _445  and  _446
REMARK  193  A    between atoms: _455  and  _457
REMARK  194  A    between atoms: _457  and  _458
REMARK  195  A    between atoms: _457  and  _460
REMARK  196  A    between atoms: _460  and  _461
REMARK  197  A    between atoms: _461  and  _462
REMARK  198  A    between atoms: _462  and  _463
REMARK  199  A    between atoms: _463  and  _464
REMARK  200  A    between atoms: _468  and  _470
REMARK  201  A    between atoms: _470  and  _471
REMARK  202  A    between atoms: _470  and  _473
REMARK  203  A    between atoms: _473  and  _474
REMARK  204  A    between atoms: _479  and  _480
REMARK  205  A    between atoms: _482  and  _484
REMARK  206  A    between atoms: _484  and  _485
REMARK  207  A    between atoms: _487  and  _489
REMARK  208  A    between atoms: _489  and  _490
REMARK  209  A    between atoms: _489  and  _492
REMARK  210  A    between atoms: _492  and  _493
REMARK  211  A    between atoms: _496  and  _498
REMARK  212  A    between atoms: _498  and  _499
REMARK  213  A    between atoms: _498  and  _501
REMARK  214  A    between atoms: _501  and  _502
REMARK  215  A    between atoms: _507  and  _508
REMARK  216  A    between atoms: _510  and  _512
REMARK  217  A    between atoms: _512  and  _513
REMARK  218  A    between atoms: _512  and  _515
REMARK  219  A    between atoms: _515  and  _516
REMARK                            x       y       z     vdW  Elec       q    Type
REMARK                         _______ _______ _______ _____ _____    ______ ____
ROOT
ATOM      1  O   HOH     1      13.620  65.448  -2.177  0.00  0.00    +0.000 OA
ENDROOT
TORSDOF 0
REMARK  Name = ../refined-set-2016/2vwl/2vwl_pocket.pdb
REMARK  219 active torsions:
REMARK  status: ('A' for Active; 'I' for Inactive)
REMARK    1  A    between atoms: _1  and  _5
REMARK    2  A    between atoms: _5  and  _6
REMARK    3  A    between atoms: _5  and  _8
REMARK    4  A    between atoms: _8  and  _9
REMARK    5  A    between atoms: _12  and  _14
REMARK    6  A    between atoms: _14  and  _15
REMARK    7  A    between atoms: _14  and  _17
REMARK    8  A    between atoms: _20  and  _22
REMARK    9  A    between atoms: _22  and  _23
REMARK   10  A    between atoms: _22  and  _25
REMARK   11  A    between atoms: _25  and  _26
REMARK   12  A    between atoms: _31  and  _33
REMARK   13  A    between atoms: _33  and  _34
REMARK   14  A    between atoms: _33  and  _36
REMARK   15  A    between atoms: _36  and  _37
REMARK   16  A    between atoms: _37  and  _38
REMARK   17  A    between atoms: _43  and  _45
REMARK   18  A    between atoms: _45  and  _46
REMARK   19  A    between atoms: _45  and  _48
REMARK   20  A    between atoms: _48  and  _49
REMARK   21  A    between atoms: _52  and  _54
REMARK   22  A    between atoms: _54  and  _55
REMARK   23  A    between atoms: _54  and  _57
REMARK   24  A    between atoms: _57  and  _58
REMARK   25  A    between atoms: _58  and  _59
REMARK   26  A    between atoms: _59  and  _60
REMARK   27  A    between atoms: _60  and  _61
REMARK   28  A    between atoms: _65  and  _67
REMARK   29  A    between atoms: _67  and  _68
REMARK   30  A    between atoms: _67  and  _70
REMARK   31  A    between atoms: _70  and  _71
REMARK   32  A    between atoms: _71  and  _72
REMARK   33  A    between atoms: _75  and  _77
REMARK   34  A    between atoms: _77  and  _78
REMARK   35  A    between atoms: _77  and  _80
REMARK   36  A    between atoms: _80  and  _81
REMARK   37  A    between atoms: _84  and  _86
REMARK   38  A    between atoms: _86  and  _87
REMARK   39  A    between atoms: _86  and  _89
REMARK   40  A    between atoms: _89  and  _90
REMARK   41  A    between atoms: _95  and  _96
REMARK   42  A    between atoms: _98  and  _100
REMARK   43  A    between atoms: _100  and  _101
REMARK   44  A    between atoms: _100  and  _103
REMARK   45  A    between atoms: _103  and  _104
REMARK   46  A    between atoms: _107  and  _109
REMARK   47  A    between atoms: _109  and  _110
REMARK   48  A    between atoms: _109  and  _112
REMARK   49  A    between atoms: _112  and  _113
REMARK   50  A    between atoms: _116  and  _118
REMARK   51  A    between atoms: _118  and  _119
REMARK   52  A    between atoms: _118  and  _121
REMARK   53  A    between atoms: _124  and  _126
REMARK   54  A    between atoms: _126  and  _127
REMARK   55  A    between atoms: _126  and  _129
REMARK   56  A    between atoms: _129  and  _130
REMARK   57  A    between atoms: _130  and  _131
REMARK   58  A    between atoms: _131  and  _132
REMARK   59  A    between atoms: _141  and  _143
REMARK   60  A    between atoms: _143  and  _144
REMARK   61  A    between atoms: _143  and  _146
REMARK   62  A    between atoms: _146  and  _147
REMARK   63  A    between atoms: _152  and  _154
REMARK   64  A    between atoms: _154  and  _155
REMARK   65  A    between atoms: _154  and  _157
REMARK   66  A    between atoms: _157  and  _158
REMARK   67  A    between atoms: _158  and  _159
REMARK   68  A    between atoms: _162  and  _164
REMARK   69  A    between atoms: _164  and  _165
REMARK   70  A    between atoms: _164  and  _167
REMARK   71  A    between atoms: _167  and  _168
REMARK   72  A    between atoms: _168  and  _169
REMARK   73  A    between atoms: _169  and  _170
REMARK   74  A    between atoms: _170  and  _171
REMARK   75  A    between atoms: _175  and  _177
REMARK   76  A    between atoms: _177  and  _178
REMARK   77  A    between atoms: _177  and  _180
REMARK   78  A    between atoms: _183  and  _185
REMARK   79  A    between atoms: _185  and  _186
REMARK   80  A    between atoms: _185  and  _188
REMARK   81  A    between atoms: _188  and  _189
REMARK   82  A    between atoms: _191  and  _193
REMARK   83  A    between atoms: _193  and  _194
REMARK   84  A    between atoms: _193  and  _196
REMARK   85  A    between atoms: _196  and  _197
REMARK   86  A    between atoms: _199  and  _201
REMARK   87  A    between atoms: _201  and  _202
REMARK   88  A    between atoms: _201  and  _204
REMARK   89  A    between atoms: _204  and  _205
REMARK   90  A    between atoms: _211  and  _213
REMARK   91  A    between atoms: _213  and  _214
REMARK   92  A    between atoms: _213  and  _216
REMARK   93  A    between atoms: _216  and  _217
REMARK   94  A    between atoms: _220  and  _222
REMARK   95  A    between atoms: _222  and  _223
REMARK   96  A    between atoms: _222  and  _225
REMARK   97  A    between atoms: _225  and  _226
REMARK   98  A    between atoms: _229  and  _231
REMARK   99  A    between atoms: _231  and  _232
REMARK  100  A    between atoms: _231  and  _234
REMARK  101  A    between atoms: _234  and  _235
REMARK  102  A    between atoms: _238  and  _240
REMARK  103  A    between atoms: _240  and  _241
REMARK  104  A    between atoms: _240  and  _243
REMARK  105  A    between atoms: _243  and  _244
REMARK  106  A    between atoms: _244  and  _245
REMARK  107  A    between atoms: _247  and  _249
REMARK  108  A    between atoms: _249  and  _250
REMARK  109  A    between atoms: _249  and  _252
REMARK  110  A    between atoms: _252  and  _253
REMARK  111  A    between atoms: _259  and  _261
REMARK  112  A    between atoms: _261  and  _262
REMARK  113  A    between atoms: _261  and  _264
REMARK  114  A    between atoms: _266  and  _268
REMARK  115  A    between atoms: _268  and  _269
REMARK  116  A    between atoms: _272  and  _274
REMARK  117  A    between atoms: _274  and  _275
REMARK  118  A    between atoms: _277  and  _279
REMARK  119  A    between atoms: _279  and  _280
REMARK  120  A    between atoms: _279  and  _282
REMARK  121  A    between atoms: _282  and  _283
REMARK  122  A    between atoms: _283  and  _284
REMARK  123  A    between atoms: _287  and  _289
REMARK  124  A    between atoms: _289  and  _290
REMARK  125  A    between atoms: _289  and  _292
REMARK  126  A    between atoms: _292  and  _293
REMARK  127  A    between atoms: _296  and  _298
REMARK  128  A    between atoms: _298  and  _299
REMARK  129  A    between atoms: _302  and  _304
REMARK  130  A    between atoms: _304  and  _305
REMARK  131  A    between atoms: _304  and  _307
REMARK  132  A    between atoms: _307  and  _308
REMARK  133  A    between atoms: _308  and  _431
REMARK  134  A    between atoms: _309  and  _311
REMARK  135  A    between atoms: _311  and  _312
REMARK  136  A    between atoms: _311  and  _314
REMARK  137  A    between atoms: _314  and  _315
REMARK  138  A    between atoms: _315  and  _316
REMARK  139  A    between atoms: _321  and  _323
REMARK  140  A    between atoms: _323  and  _324
REMARK  141  A    between atoms: _326  and  _328
REMARK  142  A    between atoms: _328  and  _329
REMARK  143  A    between atoms: _328  and  _331
REMARK  144  A    between atoms: _331  and  _332
REMARK  145  A    between atoms: _335  and  _337
REMARK  146  A    between atoms: _337  and  _338
REMARK  147  A    between atoms: _337  and  _340
REMARK  148  A    between atoms: _340  and  _341
REMARK  149  A    between atoms: _343  and  _345
REMARK  150  A    between atoms: _345  and  _346
REMARK  151  A    between atoms: _348  and  _350
REMARK  152  A    between atoms: _350  and  _351
REMARK  153  A    between atoms: _353  and  _355
REMARK  154  A    between atoms: _355  and  _356
REMARK  155  A    between atoms: _355  and  _358
REMARK  156  A    between atoms: _358  and  _359
REMARK  157  A    between atoms: _364  and  _366
REMARK  158  A    between atoms: _366  and  _367
REMARK  159  A    between atoms: _366  and  _369
REMARK  160  A    between atoms: _369  and  _370
REMARK  161  A    between atoms: _373  and  _375
REMARK  162  A    between atoms: _375  and  _376
REMARK  163  A    between atoms: _375  and  _378
REMARK  164  A    between atoms: _381  and  _383
REMARK  165  A    between atoms: _383  and  _384
REMARK  166  A    between atoms: _383  and  _386
REMARK  167  A    between atoms: _386  and  _387
REMARK  168  A    between atoms: _389  and  _391
REMARK  169  A    between atoms: _391  and  _392
REMARK  170  A    between atoms: _391  and  _394
REMARK  171  A    between atoms: _394  and  _395
REMARK  172  A    between atoms: _405  and  _407
REMARK  173  A    between atoms: _407  and  _408
REMARK  174  A    between atoms: _410  and  _412
REMARK  175  A    between atoms: _412  and  _413
REMARK  176  A    between atoms: _412  and  _415
REMARK  177  A    between atoms: _415  and  _416
REMARK  178  A    between atoms: _416  and  _417
REMARK  179  A    between atoms: _420  and  _422
REMARK  180  A    between atoms: _422  and  _423
REMARK  181  A    between atoms: _425  and  _427
REMARK  182  A    between atoms: _427  and  _428
REMARK  183  A    between atoms: _427  and  _430
REMARK  184  A    between atoms: _430  and  _431
REMARK  185  A    between atoms: _432  and  _434
REMARK  186  A    between atoms: _434  and  _435
REMARK  187  A    between atoms: _438  and  _440
REMARK  188  A    between atoms: _440  and  _441
REMARK  189  A    between atoms: _440  and  _443
REMARK  190  A    between atoms: _443  and  _444
REMARK  191  A    between atoms: _444  and  _445
REMARK  192  A    between atoms: _445  and  _446
REMARK  193  A    between atoms: _455  and  _457
REMARK  194  A    between atoms: _457  and  _458
REMARK  195  A    between atoms: _457  and  _460
REMARK  196  A    between atoms: _460  and  _461
REMARK  197  A    between atoms: _461  and  _462
REMARK  198  A    between atoms: _462  and  _463
REMARK  199  A    between atoms: _463  and  _464
REMARK  200  A    between atoms: _468  and  _470
REMARK  201  A    between atoms: _470  and  _471
REMARK  202  A    between atoms: _470  and  _473
REMARK  203  A    between atoms: _473  and  _474
REMARK  204  A    between atoms: _479  and  _480
REMARK  205  A    between atoms: _482  and  _484
REMARK  206  A    between atoms: _484  and  _485
REMARK  207  A    between atoms: _487  and  _489
REMARK  208  A    between atoms: _489  and  _490
REMARK  209  A    between atoms: _489  and  _492
REMARK  210  A    between atoms: _492  and  _493
REMARK  211  A    between atoms: _496  and  _498
REMARK  212  A    between atoms: _498  and  _499
REMARK  213  A    between atoms: _498  and  _501
REMARK  214  A    between atoms: _501  and  _502
REMARK  215  A    between atoms: _507  and  _508
REMARK  216  A    between atoms: _510  and  _512
REMARK  217  A    between atoms: _512  and  _513
REMARK  218  A    between atoms: _512  and  _515
REMARK  219  A    between atoms: _515  and  _516
REMARK                            x       y       z     vdW  Elec       q    Type
REMARK                         _______ _______ _______ _____ _____    ______ ____
ROOT
ATOM      1  O   HOH     1       4.255  58.716  -0.587  0.00  0.00    +0.000 OA
ENDROOT
TORSDOF 0
REMARK  Name = ../refined-set-2016/2vwl/2vwl_pocket.pdb
REMARK  219 active torsions:
REMARK  status: ('A' for Active; 'I' for Inactive)
REMARK    1  A    between atoms: _1  and  _5
REMARK    2  A    between atoms: _5  and  _6
REMARK    3  A    between atoms: _5  and  _8
REMARK    4  A    between atoms: _8  and  _9
REMARK    5  A    between atoms: _12  and  _14
REMARK    6  A    between atoms: _14  and  _15
REMARK    7  A    between atoms: _14  and  _17
REMARK    8  A    between atoms: _20  and  _22
REMARK    9  A    between atoms: _22  and  _23
REMARK   10  A    between atoms: _22  and  _25
REMARK   11  A    between atoms: _25  and  _26
REMARK   12  A    between atoms: _31  and  _33
REMARK   13  A    between atoms: _33  and  _34
REMARK   14  A    between atoms: _33  and  _36
REMARK   15  A    between atoms: _36  and  _37
REMARK   16  A    between atoms: _37  and  _38
REMARK   17  A    between atoms: _43  and  _45
REMARK   18  A    between atoms: _45  and  _46
REMARK   19  A    between atoms: _45  and  _48
REMARK   20  A    between atoms: _48  and  _49
REMARK   21  A    between atoms: _52  and  _54
REMARK   22  A    between atoms: _54  and  _55
REMARK   23  A    between atoms: _54  and  _57
REMARK   24  A    between atoms: _57  and  _58
REMARK   25  A    between atoms: _58  and  _59
REMARK   26  A    between atoms: _59  and  _60
REMARK   27  A    between atoms: _60  and  _61
REMARK   28  A    between atoms: _65  and  _67
REMARK   29  A    between atoms: _67  and  _68
REMARK   30  A    between atoms: _67  and  _70
REMARK   31  A    between atoms: _70  and  _71
REMARK   32  A    between atoms: _71  and  _72
REMARK   33  A    between atoms: _75  and  _77
REMARK   34  A    between atoms: _77  and  _78
REMARK   35  A    between atoms: _77  and  _80
REMARK   36  A    between atoms: _80  and  _81
REMARK   37  A    between atoms: _84  and  _86
REMARK   38  A    between atoms: _86  and  _87
REMARK   39  A    between atoms: _86  and  _89
REMARK   40  A    between atoms: _89  and  _90
REMARK   41  A    between atoms: _95  and  _96
REMARK   42  A    between atoms: _98  and  _100
REMARK   43  A    between atoms: _100  and  _101
REMARK   44  A    between atoms: _100  and  _103
REMARK   45  A    between atoms: _103  and  _104
REMARK   46  A    between atoms: _107  and  _109
REMARK   47  A    between atoms: _109  and  _110
REMARK   48  A    between atoms: _109  and  _112
REMARK   49  A    between atoms: _112  and  _113
REMARK   50  A    between atoms: _116  and  _118
REMARK   51  A    between atoms: _118  and  _119
REMARK   52  A    between atoms: _118  and  _121
REMARK   53  A    between atoms: _124  and  _126
REMARK   54  A    between atoms: _126  and  _127
REMARK   55  A    between atoms: _126  and  _129
REMARK   56  A    between atoms: _129  and  _130
REMARK   57  A    between atoms: _130  and  _131
REMARK   58  A    between atoms: _131  and  _132
REMARK   59  A    between atoms: _141  and  _143
REMARK   60  A    between atoms: _143  and  _144
REMARK   61  A    between atoms: _143  and  _146
REMARK   62  A    between atoms: _146  and  _147
REMARK   63  A    between atoms: _152  and  _154
REMARK   64  A    between atoms: _154  and  _155
REMARK   65  A    between atoms: _154  and  _157
REMARK   66  A    between atoms: _157  and  _158
REMARK   67  A    between atoms: _158  and  _159
REMARK   68  A    between atoms: _162  and  _164
REMARK   69  A    between atoms: _164  and  _165
REMARK   70  A    between atoms: _164  and  _167
REMARK   71  A    between atoms: _167  and  _168
REMARK   72  A    between atoms: _168  and  _169
REMARK   73  A    between atoms: _169  and  _170
REMARK   74  A    between atoms: _170  and  _171
REMARK   75  A    between atoms: _175  and  _177
REMARK   76  A    between atoms: _177  and  _178
REMARK   77  A    between atoms: _177  and  _180
REMARK   78  A    between atoms: _183  and  _185
REMARK   79  A    between atoms: _185  and  _186
REMARK   80  A    between atoms: _185  and  _188
REMARK   81  A    between atoms: _188  and  _189
REMARK   82  A    between atoms: _191  and  _193
REMARK   83  A    between atoms: _193  and  _194
REMARK   84  A    between atoms: _193  and  _196
REMARK   85  A    between atoms: _196  and  _197
REMARK   86  A    between atoms: _199  and  _201
REMARK   87  A    between atoms: _201  and  _202
REMARK   88  A    between atoms: _201  and  _204
REMARK   89  A    between atoms: _204  and  _205
REMARK   90  A    between atoms: _211  and  _213
REMARK   91  A    between atoms: _213  and  _214
REMARK   92  A    between atoms: _213  and  _216
REMARK   93  A    between atoms: _216  and  _217
REMARK   94  A    between atoms: _220  and  _222
REMARK   95  A    between atoms: _222  and  _223
REMARK   96  A    between atoms: _222  and  _225
REMARK   97  A    between atoms: _225  and  _226
REMARK   98  A    between atoms: _229  and  _231
REMARK   99  A    between atoms: _231  and  _232
REMARK  100  A    between atoms: _231  and  _234
REMARK  101  A    between atoms: _234  and  _235
REMARK  102  A    between atoms: _238  and  _240
REMARK  103  A    between atoms: _240  and  _241
REMARK  104  A    between atoms: _240  and  _243
REMARK  105  A    between atoms: _243  and  _244
REMARK  106  A    between atoms: _244  and  _245
REMARK  107  A    between atoms: _247  and  _249
REMARK  108  A    between atoms: _249  and  _250
REMARK  109  A    between atoms: _249  and  _252
REMARK  110  A    between atoms: _252  and  _253
REMARK  111  A    between atoms: _259  and  _261
REMARK  112  A    between atoms: _261  and  _262
REMARK  113  A    between atoms: _261  and  _264
REMARK  114  A    between atoms: _266  and  _268
REMARK  115  A    between atoms: _268  and  _269
REMARK  116  A    between atoms: _272  and  _274
REMARK  117  A    between atoms: _274  and  _275
REMARK  118  A    between atoms: _277  and  _279
REMARK  119  A    between atoms: _279  and  _280
REMARK  120  A    between atoms: _279  and  _282
REMARK  121  A    between atoms: _282  and  _283
REMARK  122  A    between atoms: _283  and  _284
REMARK  123  A    between atoms: _287  and  _289
REMARK  124  A    between atoms: _289  and  _290
REMARK  125  A    between atoms: _289  and  _292
REMARK  126  A    between atoms: _292  and  _293
REMARK  127  A    between atoms: _296  and  _298
REMARK  128  A    between atoms: _298  and  _299
REMARK  129  A    between atoms: _302  and  _304
REMARK  130  A    between atoms: _304  and  _305
REMARK  131  A    between atoms: _304  and  _307
REMARK  132  A    between atoms: _307  and  _308
REMARK  133  A    between atoms: _308  and  _431
REMARK  134  A    between atoms: _309  and  _311
REMARK  135  A    between atoms: _311  and  _312
REMARK  136  A    between atoms: _311  and  _314
REMARK  137  A    between atoms: _314  and  _315
REMARK  138  A    between atoms: _315  and  _316
REMARK  139  A    between atoms: _321  and  _323
REMARK  140  A    between atoms: _323  and  _324
REMARK  141  A    between atoms: _326  and  _328
REMARK  142  A    between atoms: _328  and  _329
REMARK  143  A    between atoms: _328  and  _331
REMARK  144  A    between atoms: _331  and  _332
REMARK  145  A    between atoms: _335  and  _337
REMARK  146  A    between atoms: _337  and  _338
REMARK  147  A    between atoms: _337  and  _340
REMARK  148  A    between atoms: _340  and  _341
REMARK  149  A    between atoms: _343  and  _345
REMARK  150  A    between atoms: _345  and  _346
REMARK  151  A    between atoms: _348  and  _350
REMARK  152  A    between atoms: _350  and  _351
REMARK  153  A    between atoms: _353  and  _355
REMARK  154  A    between atoms: _355  and  _356
REMARK  155  A    between atoms: _355  and  _358
REMARK  156  A    between atoms: _358  and  _359
REMARK  157  A    between atoms: _364  and  _366
REMARK  158  A    between atoms: _366  and  _367
REMARK  159  A    between atoms: _366  and  _369
REMARK  160  A    between atoms: _369  and  _370
REMARK  161  A    between atoms: _373  and  _375
REMARK  162  A    between atoms: _375  and  _376
REMARK  163  A    between atoms: _375  and  _378
REMARK  164  A    between atoms: _381  and  _383
REMARK  165  A    between atoms: _383  and  _384
REMARK  166  A    between atoms: _383  and  _386
REMARK  167  A    between atoms: _386  and  _387
REMARK  168  A    between atoms: _389  and  _391
REMARK  169  A    between atoms: _391  and  _392
REMARK  170  A    between atoms: _391  and  _394
REMARK  171  A    between atoms: _394  and  _395
REMARK  172  A    between atoms: _405  and  _407
REMARK  173  A    between atoms: _407  and  _408
REMARK  174  A    between atoms: _410  and  _412
REMARK  175  A    between atoms: _412  and  _413
REMARK  176  A    between atoms: _412  and  _415
REMARK  177  A    between atoms: _415  and  _416
REMARK  178  A    between atoms: _416  and  _417
REMARK  179  A    between atoms: _420  and  _422
REMARK  180  A    between atoms: _422  and  _423
REMARK  181  A    between atoms: _425  and  _427
REMARK  182  A    between atoms: _427  and  _428
REMARK  183  A    between atoms: _427  and  _430
REMARK  184  A    between atoms: _430  and  _431
REMARK  185  A    between atoms: _432  and  _434
REMARK  186  A    between atoms: _434  and  _435
REMARK  187  A    between atoms: _438  and  _440
REMARK  188  A    between atoms: _440  and  _441
REMARK  189  A    between atoms: _440  and  _443
REMARK  190  A    between atoms: _443  and  _444
REMARK  191  A    between atoms: _444  and  _445
REMARK  192  A    between atoms: _445  and  _446
REMARK  193  A    between atoms: _455  and  _457
REMARK  194  A    between atoms: _457  and  _458
REMARK  195  A    between atoms: _457  and  _460
REMARK  196  A    between atoms: _460  and  _461
REMARK  197  A    between atoms: _461  and  _462
REMARK  198  A    between atoms: _462  and  _463
REMARK  199  A    between atoms: _463  and  _464
REMARK  200  A    between atoms: _468  and  _470
REMARK  201  A    between atoms: _470  and  _471
REMARK  202  A    between atoms: _470  and  _473
REMARK  203  A    between atoms: _473  and  _474
REMARK  204  A    between atoms: _479  and  _480
REMARK  205  A    between atoms: _482  and  _484
REMARK  206  A    between atoms: _484  and  _485
REMARK  207  A    between atoms: _487  and  _489
REMARK  208  A    between atoms: _489  and  _490
REMARK  209  A    between atoms: _489  and  _492
REMARK  210  A    between atoms: _492  and  _493
REMARK  211  A    between atoms: _496  and  _498
REMARK  212  A    between atoms: _498  and  _499
REMARK  213  A    between atoms: _498  and  _501
REMARK  214  A    between atoms: _501  and  _502
REMARK  215  A    between atoms: _507  and  _508
REMARK  216  A    between atoms: _510  and  _512
REMARK  217  A    between atoms: _512  and  _513
REMARK  218  A    between atoms: _512  and  _515
REMARK  219  A    between atoms: _515  and  _516
REMARK                            x       y       z     vdW  Elec       q    Type
REMARK                         _______ _______ _______ _____ _____    ______ ____
ROOT
ATOM      1  O   HOH     1       1.722  56.240   0.883  0.00  0.00    +0.000 OA
ENDROOT
TORSDOF 0
REMARK  Name = ../refined-set-2016/2vwl/2vwl_pocket.pdb
REMARK  219 active torsions:
REMARK  status: ('A' for Active; 'I' for Inactive)
REMARK    1  A    between atoms: _1  and  _5
REMARK    2  A    between atoms: _5  and  _6
REMARK    3  A    between atoms: _5  and  _8
REMARK    4  A    between atoms: _8  and  _9
REMARK    5  A    between atoms: _12  and  _14
REMARK    6  A    between atoms: _14  and  _15
REMARK    7  A    between atoms: _14  and  _17
REMARK    8  A    between atoms: _20  and  _22
REMARK    9  A    between atoms: _22  and  _23
REMARK   10  A    between atoms: _22  and  _25
REMARK   11  A    between atoms: _25  and  _26
REMARK   12  A    between atoms: _31  and  _33
REMARK   13  A    between atoms: _33  and  _34
REMARK   14  A    between atoms: _33  and  _36
REMARK   15  A    between atoms: _36  and  _37
REMARK   16  A    between atoms: _37  and  _38
REMARK   17  A    between atoms: _43  and  _45
REMARK   18  A    between atoms: _45  and  _46
REMARK   19  A    between atoms: _45  and  _48
REMARK   20  A    between atoms: _48  and  _49
REMARK   21  A    between atoms: _52  and  _54
REMARK   22  A    between atoms: _54  and  _55
REMARK   23  A    between atoms: _54  and  _57
REMARK   24  A    between atoms: _57  and  _58
REMARK   25  A    between atoms: _58  and  _59
REMARK   26  A    between atoms: _59  and  _60
REMARK   27  A    between atoms: _60  and  _61
REMARK   28  A    between atoms: _65  and  _67
REMARK   29  A    between atoms: _67  and  _68
REMARK   30  A    between atoms: _67  and  _70
REMARK   31  A    between atoms: _70  and  _71
REMARK   32  A    between atoms: _71  and  _72
REMARK   33  A    between atoms: _75  and  _77
REMARK   34  A    between atoms: _77  and  _78
REMARK   35  A    between atoms: _77  and  _80
REMARK   36  A    between atoms: _80  and  _81
REMARK   37  A    between atoms: _84  and  _86
REMARK   38  A    between atoms: _86  and  _87
REMARK   39  A    between atoms: _86  and  _89
REMARK   40  A    between atoms: _89  and  _90
REMARK   41  A    between atoms: _95  and  _96
REMARK   42  A    between atoms: _98  and  _100
REMARK   43  A    between atoms: _100  and  _101
REMARK   44  A    between atoms: _100  and  _103
REMARK   45  A    between atoms: _103  and  _104
REMARK   46  A    between atoms: _107  and  _109
REMARK   47  A    between atoms: _109  and  _110
REMARK   48  A    between atoms: _109  and  _112
REMARK   49  A    between atoms: _112  and  _113
REMARK   50  A    between atoms: _116  and  _118
REMARK   51  A    between atoms: _118  and  _119
REMARK   52  A    between atoms: _118  and  _121
REMARK   53  A    between atoms: _124  and  _126
REMARK   54  A    between atoms: _126  and  _127
REMARK   55  A    between atoms: _126  and  _129
REMARK   56  A    between atoms: _129  and  _130
REMARK   57  A    between atoms: _130  and  _131
REMARK   58  A    between atoms: _131  and  _132
REMARK   59  A    between atoms: _141  and  _143
REMARK   60  A    between atoms: _143  and  _144
REMARK   61  A    between atoms: _143  and  _146
REMARK   62  A    between atoms: _146  and  _147
REMARK   63  A    between atoms: _152  and  _154
REMARK   64  A    between atoms: _154  and  _155
REMARK   65  A    between atoms: _154  and  _157
REMARK   66  A    between atoms: _157  and  _158
REMARK   67  A    between atoms: _158  and  _159
REMARK   68  A    between atoms: _162  and  _164
REMARK   69  A    between atoms: _164  and  _165
REMARK   70  A    between atoms: _164  and  _167
REMARK   71  A    between atoms: _167  and  _168
REMARK   72  A    between atoms: _168  and  _169
REMARK   73  A    between atoms: _169  and  _170
REMARK   74  A    between atoms: _170  and  _171
REMARK   75  A    between atoms: _175  and  _177
REMARK   76  A    between atoms: _177  and  _178
REMARK   77  A    between atoms: _177  and  _180
REMARK   78  A    between atoms: _183  and  _185
REMARK   79  A    between atoms: _185  and  _186
REMARK   80  A    between atoms: _185  and  _188
REMARK   81  A    between atoms: _188  and  _189
REMARK   82  A    between atoms: _191  and  _193
REMARK   83  A    between atoms: _193  and  _194
REMARK   84  A    between atoms: _193  and  _196
REMARK   85  A    between atoms: _196  and  _197
REMARK   86  A    between atoms: _199  and  _201
REMARK   87  A    between atoms: _201  and  _202
REMARK   88  A    between atoms: _201  and  _204
REMARK   89  A    between atoms: _204  and  _205
REMARK   90  A    between atoms: _211  and  _213
REMARK   91  A    between atoms: _213  and  _214
REMARK   92  A    between atoms: _213  and  _216
REMARK   93  A    between atoms: _216  and  _217
REMARK   94  A    between atoms: _220  and  _222
REMARK   95  A    between atoms: _222  and  _223
REMARK   96  A    between atoms: _222  and  _225
REMARK   97  A    between atoms: _225  and  _226
REMARK   98  A    between atoms: _229  and  _231
REMARK   99  A    between atoms: _231  and  _232
REMARK  100  A    between atoms: _231  and  _234
REMARK  101  A    between atoms: _234  and  _235
REMARK  102  A    between atoms: _238  and  _240
REMARK  103  A    between atoms: _240  and  _241
REMARK  104  A    between atoms: _240  and  _243
REMARK  105  A    between atoms: _243  and  _244
REMARK  106  A    between atoms: _244  and  _245
REMARK  107  A    between atoms: _247  and  _249
REMARK  108  A    between atoms: _249  and  _250
REMARK  109  A    between atoms: _249  and  _252
REMARK  110  A    between atoms: _252  and  _253
REMARK  111  A    between atoms: _259  and  _261
REMARK  112  A    between atoms: _261  and  _262
REMARK  113  A    between atoms: _261  and  _264
REMARK  114  A    between atoms: _266  and  _268
REMARK  115  A    between atoms: _268  and  _269
REMARK  116  A    between atoms: _272  and  _274
REMARK  117  A    between atoms: _274  and  _275
REMARK  118  A    between atoms: _277  and  _279
REMARK  119  A    between atoms: _279  and  _280
REMARK  120  A    between atoms: _279  and  _282
REMARK  121  A    between atoms: _282  and  _283
REMARK  122  A    between atoms: _283  and  _284
REMARK  123  A    between atoms: _287  and  _289
REMARK  124  A    between atoms: _289  and  _290
REMARK  125  A    between atoms: _289  and  _292
REMARK  126  A    between atoms: _292  and  _293
REMARK  127  A    between atoms: _296  and  _298
REMARK  128  A    between atoms: _298  and  _299
REMARK  129  A    between atoms: _302  and  _304
REMARK  130  A    between atoms: _304  and  _305
REMARK  131  A    between atoms: _304  and  _307
REMARK  132  A    between atoms: _307  and  _308
REMARK  133  A    between atoms: _308  and  _431
REMARK  134  A    between atoms: _309  and  _311
REMARK  135  A    between atoms: _311  and  _312
REMARK  136  A    between atoms: _311  and  _314
REMARK  137  A    between atoms: _314  and  _315
REMARK  138  A    between atoms: _315  and  _316
REMARK  139  A    between atoms: _321  and  _323
REMARK  140  A    between atoms: _323  and  _324
REMARK  141  A    between atoms: _326  and  _328
REMARK  142  A    between atoms: _328  and  _329
REMARK  143  A    between atoms: _328  and  _331
REMARK  144  A    between atoms: _331  and  _332
REMARK  145  A    between atoms: _335  and  _337
REMARK  146  A    between atoms: _337  and  _338
REMARK  147  A    between atoms: _337  and  _340
REMARK  148  A    between atoms: _340  and  _341
REMARK  149  A    between atoms: _343  and  _345
REMARK  150  A    between atoms: _345  and  _346
REMARK  151  A    between atoms: _348  and  _350
REMARK  152  A    between atoms: _350  and  _351
REMARK  153  A    between atoms: _353  and  _355
REMARK  154  A    between atoms: _355  and  _356
REMARK  155  A    between atoms: _355  and  _358
REMARK  156  A    between atoms: _358  and  _359
REMARK  157  A    between atoms: _364  and  _366
REMARK  158  A    between atoms: _366  and  _367
REMARK  159  A    between atoms: _366  and  _369
REMARK  160  A    between atoms: _369  and  _370
REMARK  161  A    between atoms: _373  and  _375
REMARK  162  A    between atoms: _375  and  _376
REMARK  163  A    between atoms: _375  and  _378
REMARK  164  A    between atoms: _381  and  _383
REMARK  165  A    between atoms: _383  and  _384
REMARK  166  A    between atoms: _383  and  _386
REMARK  167  A    between atoms: _386  and  _387
REMARK  168  A    between atoms: _389  and  _391
REMARK  169  A    between atoms: _391  and  _392
REMARK  170  A    between atoms: _391  and  _394
REMARK  171  A    between atoms: _394  and  _395
REMARK  172  A    between atoms: _405  and  _407
REMARK  173  A    between atoms: _407  and  _408
REMARK  174  A    between atoms: _410  and  _412
REMARK  175  A    between atoms: _412  and  _413
REMARK  176  A    between atoms: _412  and  _415
REMARK  177  A    between atoms: _415  and  _416
REMARK  178  A    between atoms: _416  and  _417
REMARK  179  A    between atoms: _420  and  _422
REMARK  180  A    between atoms: _422  and  _423
REMARK  181  A    between atoms: _425  and  _427
REMARK  182  A    between atoms: _427  and  _428
REMARK  183  A    between atoms: _427  and  _430
REMARK  184  A    between atoms: _430  and  _431
REMARK  185  A    between atoms: _432  and  _434
REMARK  186  A    between atoms: _434  and  _435
REMARK  187  A    between atoms: _438  and  _440
REMARK  188  A    between atoms: _440  and  _441
REMARK  189  A    between atoms: _440  and  _443
REMARK  190  A    between atoms: _443  and  _444
REMARK  191  A    between atoms: _444  and  _445
REMARK  192  A    between atoms: _445  and  _446
REMARK  193  A    between atoms: _455  and  _457
REMARK  194  A    between atoms: _457  and  _458
REMARK  195  A    between atoms: _457  and  _460
REMARK  196  A    between atoms: _460  and  _461
REMARK  197  A    between atoms: _461  and  _462
REMARK  198  A    between atoms: _462  and  _463
REMARK  199  A    between atoms: _463  and  _464
REMARK  200  A    between atoms: _468  and  _470
REMARK  201  A    between atoms: _470  and  _471
REMARK  202  A    between atoms: _470  and  _473
REMARK  203  A    between atoms: _473  and  _474
REMARK  204  A    between atoms: _479  and  _480
REMARK  205  A    between atoms: _482  and  _484
REMARK  206  A    between atoms: _484  and  _485
REMARK  207  A    between atoms: _487  and  _489
REMARK  208  A    between atoms: _489  and  _490
REMARK  209  A    between atoms: _489  and  _492
REMARK  210  A    between atoms: _492  and  _493
REMARK  211  A    between atoms: _496  and  _498
REMARK  212  A    between atoms: _498  and  _499
REMARK  213  A    between atoms: _498  and  _501
REMARK  214  A    between atoms: _501  and  _502
REMARK  215  A    between atoms: _507  and  _508
REMARK  216  A    between atoms: _510  and  _512
REMARK  217  A    between atoms: _512  and  _513
REMARK  218  A    between atoms: _512  and  _515
REMARK  219  A    between atoms: _515  and  _516
REMARK                            x       y       z     vdW  Elec       q    Type
REMARK                         _______ _______ _______ _____ _____    ______ ____
ROOT
ATOM      1  O   HOH     1       6.843  52.780   4.773  0.00  0.00    +0.000 OA
ENDROOT
TORSDOF 0
REMARK  Name = ../refined-set-2016/2vwl/2vwl_pocket.pdb
REMARK  219 active torsions:
REMARK  status: ('A' for Active; 'I' for Inactive)
REMARK    1  A    between atoms: _1  and  _5
REMARK    2  A    between atoms: _5  and  _6
REMARK    3  A    between atoms: _5  and  _8
REMARK    4  A    between atoms: _8  and  _9
REMARK    5  A    between atoms: _12  and  _14
REMARK    6  A    between atoms: _14  and  _15
REMARK    7  A    between atoms: _14  and  _17
REMARK    8  A    between atoms: _20  and  _22
REMARK    9  A    between atoms: _22  and  _23
REMARK   10  A    between atoms: _22  and  _25
REMARK   11  A    between atoms: _25  and  _26
REMARK   12  A    between atoms: _31  and  _33
REMARK   13  A    between atoms: _33  and  _34
REMARK   14  A    between atoms: _33  and  _36
REMARK   15  A    between atoms: _36  and  _37
REMARK   16  A    between atoms: _37  and  _38
REMARK   17  A    between atoms: _43  and  _45
REMARK   18  A    between atoms: _45  and  _46
REMARK   19  A    between atoms: _45  and  _48
REMARK   20  A    between atoms: _48  and  _49
REMARK   21  A    between atoms: _52  and  _54
REMARK   22  A    between atoms: _54  and  _55
REMARK   23  A    between atoms: _54  and  _57
REMARK   24  A    between atoms: _57  and  _58
REMARK   25  A    between atoms: _58  and  _59
REMARK   26  A    between atoms: _59  and  _60
REMARK   27  A    between atoms: _60  and  _61
REMARK   28  A    between atoms: _65  and  _67
REMARK   29  A    between atoms: _67  and  _68
REMARK   30  A    between atoms: _67  and  _70
REMARK   31  A    between atoms: _70  and  _71
REMARK   32  A    between atoms: _71  and  _72
REMARK   33  A    between atoms: _75  and  _77
REMARK   34  A    between atoms: _77  and  _78
REMARK   35  A    between atoms: _77  and  _80
REMARK   36  A    between atoms: _80  and  _81
REMARK   37  A    between atoms: _84  and  _86
REMARK   38  A    between atoms: _86  and  _87
REMARK   39  A    between atoms: _86  and  _89
REMARK   40  A    between atoms: _89  and  _90
REMARK   41  A    between atoms: _95  and  _96
REMARK   42  A    between atoms: _98  and  _100
REMARK   43  A    between atoms: _100  and  _101
REMARK   44  A    between atoms: _100  and  _103
REMARK   45  A    between atoms: _103  and  _104
REMARK   46  A    between atoms: _107  and  _109
REMARK   47  A    between atoms: _109  and  _110
REMARK   48  A    between atoms: _109  and  _112
REMARK   49  A    between atoms: _112  and  _113
REMARK   50  A    between atoms: _116  and  _118
REMARK   51  A    between atoms: _118  and  _119
REMARK   52  A    between atoms: _118  and  _121
REMARK   53  A    between atoms: _124  and  _126
REMARK   54  A    between atoms: _126  and  _127
REMARK   55  A    between atoms: _126  and  _129
REMARK   56  A    between atoms: _129  and  _130
REMARK   57  A    between atoms: _130  and  _131
REMARK   58  A    between atoms: _131  and  _132
REMARK   59  A    between atoms: _141  and  _143
REMARK   60  A    between atoms: _143  and  _144
REMARK   61  A    between atoms: _143  and  _146
REMARK   62  A    between atoms: _146  and  _147
REMARK   63  A    between atoms: _152  and  _154
REMARK   64  A    between atoms: _154  and  _155
REMARK   65  A    between atoms: _154  and  _157
REMARK   66  A    between atoms: _157  and  _158
REMARK   67  A    between atoms: _158  and  _159
REMARK   68  A    between atoms: _162  and  _164
REMARK   69  A    between atoms: _164  and  _165
REMARK   70  A    between atoms: _164  and  _167
REMARK   71  A    between atoms: _167  and  _168
REMARK   72  A    between atoms: _168  and  _169
REMARK   73  A    between atoms: _169  and  _170
REMARK   74  A    between atoms: _170  and  _171
REMARK   75  A    between atoms: _175  and  _177
REMARK   76  A    between atoms: _177  and  _178
REMARK   77  A    between atoms: _177  and  _180
REMARK   78  A    between atoms: _183  and  _185
REMARK   79  A    between atoms: _185  and  _186
REMARK   80  A    between atoms: _185  and  _188
REMARK   81  A    between atoms: _188  and  _189
REMARK   82  A    between atoms: _191  and  _193
REMARK   83  A    between atoms: _193  and  _194
REMARK   84  A    between atoms: _193  and  _196
REMARK   85  A    between atoms: _196  and  _197
REMARK   86  A    between atoms: _199  and  _201
REMARK   87  A    between atoms: _201  and  _202
REMARK   88  A    between atoms: _201  and  _204
REMARK   89  A    between atoms: _204  and  _205
REMARK   90  A    between atoms: _211  and  _213
REMARK   91  A    between atoms: _213  and  _214
REMARK   92  A    between atoms: _213  and  _216
REMARK   93  A    between atoms: _216  and  _217
REMARK   94  A    between atoms: _220  and  _222
REMARK   95  A    between atoms: _222  and  _223
REMARK   96  A    between atoms: _222  and  _225
REMARK   97  A    between atoms: _225  and  _226
REMARK   98  A    between atoms: _229  and  _231
REMARK   99  A    between atoms: _231  and  _232
REMARK  100  A    between atoms: _231  and  _234
REMARK  101  A    between atoms: _234  and  _235
REMARK  102  A    between atoms: _238  and  _240
REMARK  103  A    between atoms: _240  and  _241
REMARK  104  A    between atoms: _240  and  _243
REMARK  105  A    between atoms: _243  and  _244
REMARK  106  A    between atoms: _244  and  _245
REMARK  107  A    between atoms: _247  and  _249
REMARK  108  A    between atoms: _249  and  _250
REMARK  109  A    between atoms: _249  and  _252
REMARK  110  A    between atoms: _252  and  _253
REMARK  111  A    between atoms: _259  and  _261
REMARK  112  A    between atoms: _261  and  _262
REMARK  113  A    between atoms: _261  and  _264
REMARK  114  A    between atoms: _266  and  _268
REMARK  115  A    between atoms: _268  and  _269
REMARK  116  A    between atoms: _272  and  _274
REMARK  117  A    between atoms: _274  and  _275
REMARK  118  A    between atoms: _277  and  _279
REMARK  119  A    between atoms: _279  and  _280
REMARK  120  A    between atoms: _279  and  _282
REMARK  121  A    between atoms: _282  and  _283
REMARK  122  A    between atoms: _283  and  _284
REMARK  123  A    between atoms: _287  and  _289
REMARK  124  A    between atoms: _289  and  _290
REMARK  125  A    between atoms: _289  and  _292
REMARK  126  A    between atoms: _292  and  _293
REMARK  127  A    between atoms: _296  and  _298
REMARK  128  A    between atoms: _298  and  _299
REMARK  129  A    between atoms: _302  and  _304
REMARK  130  A    between atoms: _304  and  _305
REMARK  131  A    between atoms: _304  and  _307
REMARK  132  A    between atoms: _307  and  _308
REMARK  133  A    between atoms: _308  and  _431
REMARK  134  A    between atoms: _309  and  _311
REMARK  135  A    between atoms: _311  and  _312
REMARK  136  A    between atoms: _311  and  _314
REMARK  137  A    between atoms: _314  and  _315
REMARK  138  A    between atoms: _315  and  _316
REMARK  139  A    between atoms: _321  and  _323
REMARK  140  A    between atoms: _323  and  _324
REMARK  141  A    between atoms: _326  and  _328
REMARK  142  A    between atoms: _328  and  _329
REMARK  143  A    between atoms: _328  and  _331
REMARK  144  A    between atoms: _331  and  _332
REMARK  145  A    between atoms: _335  and  _337
REMARK  146  A    between atoms: _337  and  _338
REMARK  147  A    between atoms: _337  and  _340
REMARK  148  A    between atoms: _340  and  _341
REMARK  149  A    between atoms: _343  and  _345
REMARK  150  A    between atoms: _345  and  _346
REMARK  151  A    between atoms: _348  and  _350
REMARK  152  A    between atoms: _350  and  _351
REMARK  153  A    between atoms: _353  and  _355
REMARK  154  A    between atoms: _355  and  _356
REMARK  155  A    between atoms: _355  and  _358
REMARK  156  A    between atoms: _358  and  _359
REMARK  157  A    between atoms: _364  and  _366
REMARK  158  A    between atoms: _366  and  _367
REMARK  159  A    between atoms: _366  and  _369
REMARK  160  A    between atoms: _369  and  _370
REMARK  161  A    between atoms: _373  and  _375
REMARK  162  A    between atoms: _375  and  _376
REMARK  163  A    between atoms: _375  and  _378
REMARK  164  A    between atoms: _381  and  _383
REMARK  165  A    between atoms: _383  and  _384
REMARK  166  A    between atoms: _383  and  _386
REMARK  167  A    between atoms: _386  and  _387
REMARK  168  A    between atoms: _389  and  _391
REMARK  169  A    between atoms: _391  and  _392
REMARK  170  A    between atoms: _391  and  _394
REMARK  171  A    between atoms: _394  and  _395
REMARK  172  A    between atoms: _405  and  _407
REMARK  173  A    between atoms: _407  and  _408
REMARK  174  A    between atoms: _410  and  _412
REMARK  175  A    between atoms: _412  and  _413
REMARK  176  A    between atoms: _412  and  _415
REMARK  177  A    between atoms: _415  and  _416
REMARK  178  A    between atoms: _416  and  _417
REMARK  179  A    between atoms: _420  and  _422
REMARK  180  A    between atoms: _422  and  _423
REMARK  181  A    between atoms: _425  and  _427
REMARK  182  A    between atoms: _427  and  _428
REMARK  183  A    between atoms: _427  and  _430
REMARK  184  A    between atoms: _430  and  _431
REMARK  185  A    between atoms: _432  and  _434
REMARK  186  A    between atoms: _434  and  _435
REMARK  187  A    between atoms: _438  and  _440
REMARK  188  A    between atoms: _440  and  _441
REMARK  189  A    between atoms: _440  and  _443
REMARK  190  A    between atoms: _443  and  _444
REMARK  191  A    between atoms: _444  and  _445
REMARK  192  A    between atoms: _445  and  _446
REMARK  193  A    between atoms: _455  and  _457
REMARK  194  A    between atoms: _457  and  _458
REMARK  195  A    between atoms: _457  and  _460
REMARK  196  A    between atoms: _460  and  _461
REMARK  197  A    between atoms: _461  and  _462
REMARK  198  A    between atoms: _462  and  _463
REMARK  199  A    between atoms: _463  and  _464
REMARK  200  A    between atoms: _468  and  _470
REMARK  201  A    between atoms: _470  and  _471
REMARK  202  A    between atoms: _470  and  _473
REMARK  203  A    between atoms: _473  and  _474
REMARK  204  A    between atoms: _479  and  _480
REMARK  205  A    between atoms: _482  and  _484
REMARK  206  A    between atoms: _484  and  _485
REMARK  207  A    between atoms: _487  and  _489
REMARK  208  A    between atoms: _489  and  _490
REMARK  209  A    between atoms: _489  and  _492
REMARK  210  A    between atoms: _492  and  _493
REMARK  211  A    between atoms: _496  and  _498
REMARK  212  A    between atoms: _498  and  _499
REMARK  213  A    between atoms: _498  and  _501
REMARK  214  A    between atoms: _501  and  _502
REMARK  215  A    between atoms: _507  and  _508
REMARK  216  A    between atoms: _510  and  _512
REMARK  217  A    between atoms: _512  and  _513
REMARK  218  A    between atoms: _512  and  _515
REMARK  219  A    between atoms: _515  and  _516
REMARK                            x       y       z     vdW  Elec       q    Type
REMARK                         _______ _______ _______ _____ _____    ______ ____
ROOT
ATOM      1  O   HOH     1      10.944  62.611  -1.698  0.00  0.00    +0.000 OA
ENDROOT
TORSDOF 0
REMARK  Name = ../refined-set-2016/2vwl/2vwl_pocket.pdb
REMARK  219 active torsions:
REMARK  status: ('A' for Active; 'I' for Inactive)
REMARK    1  A    between atoms: _1  and  _5
REMARK    2  A    between atoms: _5  and  _6
REMARK    3  A    between atoms: _5  and  _8
REMARK    4  A    between atoms: _8  and  _9
REMARK    5  A    between atoms: _12  and  _14
REMARK    6  A    between atoms: _14  and  _15
REMARK    7  A    between atoms: _14  and  _17
REMARK    8  A    between atoms: _20  and  _22
REMARK    9  A    between atoms: _22  and  _23
REMARK   10  A    between atoms: _22  and  _25
REMARK   11  A    between atoms: _25  and  _26
REMARK   12  A    between atoms: _31  and  _33
REMARK   13  A    between atoms: _33  and  _34
REMARK   14  A    between atoms: _33  and  _36
REMARK   15  A    between atoms: _36  and  _37
REMARK   16  A    between atoms: _37  and  _38
REMARK   17  A    between atoms: _43  and  _45
REMARK   18  A    between atoms: _45  and  _46
REMARK   19  A    between atoms: _45  and  _48
REMARK   20  A    between atoms: _48  and  _49
REMARK   21  A    between atoms: _52  and  _54
REMARK   22  A    between atoms: _54  and  _55
REMARK   23  A    between atoms: _54  and  _57
REMARK   24  A    between atoms: _57  and  _58
REMARK   25  A    between atoms: _58  and  _59
REMARK   26  A    between atoms: _59  and  _60
REMARK   27  A    between atoms: _60  and  _61
REMARK   28  A    between atoms: _65  and  _67
REMARK   29  A    between atoms: _67  and  _68
REMARK   30  A    between atoms: _67  and  _70
REMARK   31  A    between atoms: _70  and  _71
REMARK   32  A    between atoms: _71  and  _72
REMARK   33  A    between atoms: _75  and  _77
REMARK   34  A    between atoms: _77  and  _78
REMARK   35  A    between atoms: _77  and  _80
REMARK   36  A    between atoms: _80  and  _81
REMARK   37  A    between atoms: _84  and  _86
REMARK   38  A    between atoms: _86  and  _87
REMARK   39  A    between atoms: _86  and  _89
REMARK   40  A    between atoms: _89  and  _90
REMARK   41  A    between atoms: _95  and  _96
REMARK   42  A    between atoms: _98  and  _100
REMARK   43  A    between atoms: _100  and  _101
REMARK   44  A    between atoms: _100  and  _103
REMARK   45  A    between atoms: _103  and  _104
REMARK   46  A    between atoms: _107  and  _109
REMARK   47  A    between atoms: _109  and  _110
REMARK   48  A    between atoms: _109  and  _112
REMARK   49  A    between atoms: _112  and  _113
REMARK   50  A    between atoms: _116  and  _118
REMARK   51  A    between atoms: _118  and  _119
REMARK   52  A    between atoms: _118  and  _121
REMARK   53  A    between atoms: _124  and  _126
REMARK   54  A    between atoms: _126  and  _127
REMARK   55  A    between atoms: _126  and  _129
REMARK   56  A    between atoms: _129  and  _130
REMARK   57  A    between atoms: _130  and  _131
REMARK   58  A    between atoms: _131  and  _132
REMARK   59  A    between atoms: _141  and  _143
REMARK   60  A    between atoms: _143  and  _144
REMARK   61  A    between atoms: _143  and  _146
REMARK   62  A    between atoms: _146  and  _147
REMARK   63  A    between atoms: _152  and  _154
REMARK   64  A    between atoms: _154  and  _155
REMARK   65  A    between atoms: _154  and  _157
REMARK   66  A    between atoms: _157  and  _158
REMARK   67  A    between atoms: _158  and  _159
REMARK   68  A    between atoms: _162  and  _164
REMARK   69  A    between atoms: _164  and  _165
REMARK   70  A    between atoms: _164  and  _167
REMARK   71  A    between atoms: _167  and  _168
REMARK   72  A    between atoms: _168  and  _169
REMARK   73  A    between atoms: _169  and  _170
REMARK   74  A    between atoms: _170  and  _171
REMARK   75  A    between atoms: _175  and  _177
REMARK   76  A    between atoms: _177  and  _178
REMARK   77  A    between atoms: _177  and  _180
REMARK   78  A    between atoms: _183  and  _185
REMARK   79  A    between atoms: _185  and  _186
REMARK   80  A    between atoms: _185  and  _188
REMARK   81  A    between atoms: _188  and  _189
REMARK   82  A    between atoms: _191  and  _193
REMARK   83  A    between atoms: _193  and  _194
REMARK   84  A    between atoms: _193  and  _196
REMARK   85  A    between atoms: _196  and  _197
REMARK   86  A    between atoms: _199  and  _201
REMARK   87  A    between atoms: _201  and  _202
REMARK   88  A    between atoms: _201  and  _204
REMARK   89  A    between atoms: _204  and  _205
REMARK   90  A    between atoms: _211  and  _213
REMARK   91  A    between atoms: _213  and  _214
REMARK   92  A    between atoms: _213  and  _216
REMARK   93  A    between atoms: _216  and  _217
REMARK   94  A    between atoms: _220  and  _222
REMARK   95  A    between atoms: _222  and  _223
REMARK   96  A    between atoms: _222  and  _225
REMARK   97  A    between atoms: _225  and  _226
REMARK   98  A    between atoms: _229  and  _231
REMARK   99  A    between atoms: _231  and  _232
REMARK  100  A    between atoms: _231  and  _234
REMARK  101  A    between atoms: _234  and  _235
REMARK  102  A    between atoms: _238  and  _240
REMARK  103  A    between atoms: _240  and  _241
REMARK  104  A    between atoms: _240  and  _243
REMARK  105  A    between atoms: _243  and  _244
REMARK  106  A    between atoms: _244  and  _245
REMARK  107  A    between atoms: _247  and  _249
REMARK  108  A    between atoms: _249  and  _250
REMARK  109  A    between atoms: _249  and  _252
REMARK  110  A    between atoms: _252  and  _253
REMARK  111  A    between atoms: _259  and  _261
REMARK  112  A    between atoms: _261  and  _262
REMARK  113  A    between atoms: _261  and  _264
REMARK  114  A    between atoms: _266  and  _268
REMARK  115  A    between atoms: _268  and  _269
REMARK  116  A    between atoms: _272  and  _274
REMARK  117  A    between atoms: _274  and  _275
REMARK  118  A    between atoms: _277  and  _279
REMARK  119  A    between atoms: _279  and  _280
REMARK  120  A    between atoms: _279  and  _282
REMARK  121  A    between atoms: _282  and  _283
REMARK  122  A    between atoms: _283  and  _284
REMARK  123  A    between atoms: _287  and  _289
REMARK  124  A    between atoms: _289  and  _290
REMARK  125  A    between atoms: _289  and  _292
REMARK  126  A    between atoms: _292  and  _293
REMARK  127  A    between atoms: _296  and  _298
REMARK  128  A    between atoms: _298  and  _299
REMARK  129  A    between atoms: _302  and  _304
REMARK  130  A    between atoms: _304  and  _305
REMARK  131  A    between atoms: _304  and  _307
REMARK  132  A    between atoms: _307  and  _308
REMARK  133  A    between atoms: _308  and  _431
REMARK  134  A    between atoms: _309  and  _311
REMARK  135  A    between atoms: _311  and  _312
REMARK  136  A    between atoms: _311  and  _314
REMARK  137  A    between atoms: _314  and  _315
REMARK  138  A    between atoms: _315  and  _316
REMARK  139  A    between atoms: _321  and  _323
REMARK  140  A    between atoms: _323  and  _324
REMARK  141  A    between atoms: _326  and  _328
REMARK  142  A    between atoms: _328  and  _329
REMARK  143  A    between atoms: _328  and  _331
REMARK  144  A    between atoms: _331  and  _332
REMARK  145  A    between atoms: _335  and  _337
REMARK  146  A    between atoms: _337  and  _338
REMARK  147  A    between atoms: _337  and  _340
REMARK  148  A    between atoms: _340  and  _341
REMARK  149  A    between atoms: _343  and  _345
REMARK  150  A    between atoms: _345  and  _346
REMARK  151  A    between atoms: _348  and  _350
REMARK  152  A    between atoms: _350  and  _351
REMARK  153  A    between atoms: _353  and  _355
REMARK  154  A    between atoms: _355  and  _356
REMARK  155  A    between atoms: _355  and  _358
REMARK  156  A    between atoms: _358  and  _359
REMARK  157  A    between atoms: _364  and  _366
REMARK  158  A    between atoms: _366  and  _367
REMARK  159  A    between atoms: _366  and  _369
REMARK  160  A    between atoms: _369  and  _370
REMARK  161  A    between atoms: _373  and  _375
REMARK  162  A    between atoms: _375  and  _376
REMARK  163  A    between atoms: _375  and  _378
REMARK  164  A    between atoms: _381  and  _383
REMARK  165  A    between atoms: _383  and  _384
REMARK  166  A    between atoms: _383  and  _386
REMARK  167  A    between atoms: _386  and  _387
REMARK  168  A    between atoms: _389  and  _391
REMARK  169  A    between atoms: _391  and  _392
REMARK  170  A    between atoms: _391  and  _394
REMARK  171  A    between atoms: _394  and  _395
REMARK  172  A    between atoms: _405  and  _407
REMARK  173  A    between atoms: _407  and  _408
REMARK  174  A    between atoms: _410  and  _412
REMARK  175  A    between atoms: _412  and  _413
REMARK  176  A    between atoms: _412  and  _415
REMARK  177  A    between atoms: _415  and  _416
REMARK  178  A    between atoms: _416  and  _417
REMARK  179  A    between atoms: _420  and  _422
REMARK  180  A    between atoms: _422  and  _423
REMARK  181  A    between atoms: _425  and  _427
REMARK  182  A    between atoms: _427  and  _428
REMARK  183  A    between atoms: _427  and  _430
REMARK  184  A    between atoms: _430  and  _431
REMARK  185  A    between atoms: _432  and  _434
REMARK  186  A    between atoms: _434  and  _435
REMARK  187  A    between atoms: _438  and  _440
REMARK  188  A    between atoms: _440  and  _441
REMARK  189  A    between atoms: _440  and  _443
REMARK  190  A    between atoms: _443  and  _444
REMARK  191  A    between atoms: _444  and  _445
REMARK  192  A    between atoms: _445  and  _446
REMARK  193  A    between atoms: _455  and  _457
REMARK  194  A    between atoms: _457  and  _458
REMARK  195  A    between atoms: _457  and  _460
REMARK  196  A    between atoms: _460  and  _461
REMARK  197  A    between atoms: _461  and  _462
REMARK  198  A    between atoms: _462  and  _463
REMARK  199  A    between atoms: _463  and  _464
REMARK  200  A    between atoms: _468  and  _470
REMARK  201  A    between atoms: _470  and  _471
REMARK  202  A    between atoms: _470  and  _473
REMARK  203  A    between atoms: _473  and  _474
REMARK  204  A    between atoms: _479  and  _480
REMARK  205  A    between atoms: _482  and  _484
REMARK  206  A    between atoms: _484  and  _485
REMARK  207  A    between atoms: _487  and  _489
REMARK  208  A    between atoms: _489  and  _490
REMARK  209  A    between atoms: _489  and  _492
REMARK  210  A    between atoms: _492  and  _493
REMARK  211  A    between atoms: _496  and  _498
REMARK  212  A    between atoms: _498  and  _499
REMARK  213  A    between atoms: _498  and  _501
REMARK  214  A    between atoms: _501  and  _502
REMARK  215  A    between atoms: _507  and  _508
REMARK  216  A    between atoms: _510  and  _512
REMARK  217  A    between atoms: _512  and  _513
REMARK  218  A    between atoms: _512  and  _515
REMARK  219  A    between atoms: _515  and  _516
REMARK                            x       y       z     vdW  Elec       q    Type
REMARK                         _______ _______ _______ _____ _____    ______ ____
ROOT
ATOM      1  O   HOH     1       8.088  72.248   0.777  0.00  0.00    +0.000 OA
ENDROOT
TORSDOF 0
REMARK  Name = ../refined-set-2016/2vwl/2vwl_pocket.pdb
REMARK  219 active torsions:
REMARK  status: ('A' for Active; 'I' for Inactive)
REMARK    1  A    between atoms: _1  and  _5
REMARK    2  A    between atoms: _5  and  _6
REMARK    3  A    between atoms: _5  and  _8
REMARK    4  A    between atoms: _8  and  _9
REMARK    5  A    between atoms: _12  and  _14
REMARK    6  A    between atoms: _14  and  _15
REMARK    7  A    between atoms: _14  and  _17
REMARK    8  A    between atoms: _20  and  _22
REMARK    9  A    between atoms: _22  and  _23
REMARK   10  A    between atoms: _22  and  _25
REMARK   11  A    between atoms: _25  and  _26
REMARK   12  A    between atoms: _31  and  _33
REMARK   13  A    between atoms: _33  and  _34
REMARK   14  A    between atoms: _33  and  _36
REMARK   15  A    between atoms: _36  and  _37
REMARK   16  A    between atoms: _37  and  _38
REMARK   17  A    between atoms: _43  and  _45
REMARK   18  A    between atoms: _45  and  _46
REMARK   19  A    between atoms: _45  and  _48
REMARK   20  A    between atoms: _48  and  _49
REMARK   21  A    between atoms: _52  and  _54
REMARK   22  A    between atoms: _54  and  _55
REMARK   23  A    between atoms: _54  and  _57
REMARK   24  A    between atoms: _57  and  _58
REMARK   25  A    between atoms: _58  and  _59
REMARK   26  A    between atoms: _59  and  _60
REMARK   27  A    between atoms: _60  and  _61
REMARK   28  A    between atoms: _65  and  _67
REMARK   29  A    between atoms: _67  and  _68
REMARK   30  A    between atoms: _67  and  _70
REMARK   31  A    between atoms: _70  and  _71
REMARK   32  A    between atoms: _71  and  _72
REMARK   33  A    between atoms: _75  and  _77
REMARK   34  A    between atoms: _77  and  _78
REMARK   35  A    between atoms: _77  and  _80
REMARK   36  A    between atoms: _80  and  _81
REMARK   37  A    between atoms: _84  and  _86
REMARK   38  A    between atoms: _86  and  _87
REMARK   39  A    between atoms: _86  and  _89
REMARK   40  A    between atoms: _89  and  _90
REMARK   41  A    between atoms: _95  and  _96
REMARK   42  A    between atoms: _98  and  _100
REMARK   43  A    between atoms: _100  and  _101
REMARK   44  A    between atoms: _100  and  _103
REMARK   45  A    between atoms: _103  and  _104
REMARK   46  A    between atoms: _107  and  _109
REMARK   47  A    between atoms: _109  and  _110
REMARK   48  A    between atoms: _109  and  _112
REMARK   49  A    between atoms: _112  and  _113
REMARK   50  A    between atoms: _116  and  _118
REMARK   51  A    between atoms: _118  and  _119
REMARK   52  A    between atoms: _118  and  _121
REMARK   53  A    between atoms: _124  and  _126
REMARK   54  A    between atoms: _126  and  _127
REMARK   55  A    between atoms: _126  and  _129
REMARK   56  A    between atoms: _129  and  _130
REMARK   57  A    between atoms: _130  and  _131
REMARK   58  A    between atoms: _131  and  _132
REMARK   59  A    between atoms: _141  and  _143
REMARK   60  A    between atoms: _143  and  _144
REMARK   61  A    between atoms: _143  and  _146
REMARK   62  A    between atoms: _146  and  _147
REMARK   63  A    between atoms: _152  and  _154
REMARK   64  A    between atoms: _154  and  _155
REMARK   65  A    between atoms: _154  and  _157
REMARK   66  A    between atoms: _157  and  _158
REMARK   67  A    between atoms: _158  and  _159
REMARK   68  A    between atoms: _162  and  _164
REMARK   69  A    between atoms: _164  and  _165
REMARK   70  A    between atoms: _164  and  _167
REMARK   71  A    between atoms: _167  and  _168
REMARK   72  A    between atoms: _168  and  _169
REMARK   73  A    between atoms: _169  and  _170
REMARK   74  A    between atoms: _170  and  _171
REMARK   75  A    between atoms: _175  and  _177
REMARK   76  A    between atoms: _177  and  _178
REMARK   77  A    between atoms: _177  and  _180
REMARK   78  A    between atoms: _183  and  _185
REMARK   79  A    between atoms: _185  and  _186
REMARK   80  A    between atoms: _185  and  _188
REMARK   81  A    between atoms: _188  and  _189
REMARK   82  A    between atoms: _191  and  _193
REMARK   83  A    between atoms: _193  and  _194
REMARK   84  A    between atoms: _193  and  _196
REMARK   85  A    between atoms: _196  and  _197
REMARK   86  A    between atoms: _199  and  _201
REMARK   87  A    between atoms: _201  and  _202
REMARK   88  A    between atoms: _201  and  _204
REMARK   89  A    between atoms: _204  and  _205
REMARK   90  A    between atoms: _211  and  _213
REMARK   91  A    between atoms: _213  and  _214
REMARK   92  A    between atoms: _213  and  _216
REMARK   93  A    between atoms: _216  and  _217
REMARK   94  A    between atoms: _220  and  _222
REMARK   95  A    between atoms: _222  and  _223
REMARK   96  A    between atoms: _222  and  _225
REMARK   97  A    between atoms: _225  and  _226
REMARK   98  A    between atoms: _229  and  _231
REMARK   99  A    between atoms: _231  and  _232
REMARK  100  A    between atoms: _231  and  _234
REMARK  101  A    between atoms: _234  and  _235
REMARK  102  A    between atoms: _238  and  _240
REMARK  103  A    between atoms: _240  and  _241
REMARK  104  A    between atoms: _240  and  _243
REMARK  105  A    between atoms: _243  and  _244
REMARK  106  A    between atoms: _244  and  _245
REMARK  107  A    between atoms: _247  and  _249
REMARK  108  A    between atoms: _249  and  _250
REMARK  109  A    between atoms: _249  and  _252
REMARK  110  A    between atoms: _252  and  _253
REMARK  111  A    between atoms: _259  and  _261
REMARK  112  A    between atoms: _261  and  _262
REMARK  113  A    between atoms: _261  and  _264
REMARK  114  A    between atoms: _266  and  _268
REMARK  115  A    between atoms: _268  and  _269
REMARK  116  A    between atoms: _272  and  _274
REMARK  117  A    between atoms: _274  and  _275
REMARK  118  A    between atoms: _277  and  _279
REMARK  119  A    between atoms: _279  and  _280
REMARK  120  A    between atoms: _279  and  _282
REMARK  121  A    between atoms: _282  and  _283
REMARK  122  A    between atoms: _283  and  _284
REMARK  123  A    between atoms: _287  and  _289
REMARK  124  A    between atoms: _289  and  _290
REMARK  125  A    between atoms: _289  and  _292
REMARK  126  A    between atoms: _292  and  _293
REMARK  127  A    between atoms: _296  and  _298
REMARK  128  A    between atoms: _298  and  _299
REMARK  129  A    between atoms: _302  and  _304
REMARK  130  A    between atoms: _304  and  _305
REMARK  131  A    between atoms: _304  and  _307
REMARK  132  A    between atoms: _307  and  _308
REMARK  133  A    between atoms: _308  and  _431
REMARK  134  A    between atoms: _309  and  _311
REMARK  135  A    between atoms: _311  and  _312
REMARK  136  A    between atoms: _311  and  _314
REMARK  137  A    between atoms: _314  and  _315
REMARK  138  A    between atoms: _315  and  _316
REMARK  139  A    between atoms: _321  and  _323
REMARK  140  A    between atoms: _323  and  _324
REMARK  141  A    between atoms: _326  and  _328
REMARK  142  A    between atoms: _328  and  _329
REMARK  143  A    between atoms: _328  and  _331
REMARK  144  A    between atoms: _331  and  _332
REMARK  145  A    between atoms: _335  and  _337
REMARK  146  A    between atoms: _337  and  _338
REMARK  147  A    between atoms: _337  and  _340
REMARK  148  A    between atoms: _340  and  _341
REMARK  149  A    between atoms: _343  and  _345
REMARK  150  A    between atoms: _345  and  _346
REMARK  151  A    between atoms: _348  and  _350
REMARK  152  A    between atoms: _350  and  _351
REMARK  153  A    between atoms: _353  and  _355
REMARK  154  A    between atoms: _355  and  _356
REMARK  155  A    between atoms: _355  and  _358
REMARK  156  A    between atoms: _358  and  _359
REMARK  157  A    between atoms: _364  and  _366
REMARK  158  A    between atoms: _366  and  _367
REMARK  159  A    between atoms: _366  and  _369
REMARK  160  A    between atoms: _369  and  _370
REMARK  161  A    between atoms: _373  and  _375
REMARK  162  A    between atoms: _375  and  _376
REMARK  163  A    between atoms: _375  and  _378
REMARK  164  A    between atoms: _381  and  _383
REMARK  165  A    between atoms: _383  and  _384
REMARK  166  A    between atoms: _383  and  _386
REMARK  167  A    between atoms: _386  and  _387
REMARK  168  A    between atoms: _389  and  _391
REMARK  169  A    between atoms: _391  and  _392
REMARK  170  A    between atoms: _391  and  _394
REMARK  171  A    between atoms: _394  and  _395
REMARK  172  A    between atoms: _405  and  _407
REMARK  173  A    between atoms: _407  and  _408
REMARK  174  A    between atoms: _410  and  _412
REMARK  175  A    between atoms: _412  and  _413
REMARK  176  A    between atoms: _412  and  _415
REMARK  177  A    between atoms: _415  and  _416
REMARK  178  A    between atoms: _416  and  _417
REMARK  179  A    between atoms: _420  and  _422
REMARK  180  A    between atoms: _422  and  _423
REMARK  181  A    between atoms: _425  and  _427
REMARK  182  A    between atoms: _427  and  _428
REMARK  183  A    between atoms: _427  and  _430
REMARK  184  A    between atoms: _430  and  _431
REMARK  185  A    between atoms: _432  and  _434
REMARK  186  A    between atoms: _434  and  _435
REMARK  187  A    between atoms: _438  and  _440
REMARK  188  A    between atoms: _440  and  _441
REMARK  189  A    between atoms: _440  and  _443
REMARK  190  A    between atoms: _443  and  _444
REMARK  191  A    between atoms: _444  and  _445
REMARK  192  A    between atoms: _445  and  _446
REMARK  193  A    between atoms: _455  and  _457
REMARK  194  A    between atoms: _457  and  _458
REMARK  195  A    between atoms: _457  and  _460
REMARK  196  A    between atoms: _460  and  _461
REMARK  197  A    between atoms: _461  and  _462
REMARK  198  A    between atoms: _462  and  _463
REMARK  199  A    between atoms: _463  and  _464
REMARK  200  A    between atoms: _468  and  _470
REMARK  201  A    between atoms: _470  and  _471
REMARK  202  A    between atoms: _470  and  _473
REMARK  203  A    between atoms: _473  and  _474
REMARK  204  A    between atoms: _479  and  _480
REMARK  205  A    between atoms: _482  and  _484
REMARK  206  A    between atoms: _484  and  _485
REMARK  207  A    between atoms: _487  and  _489
REMARK  208  A    between atoms: _489  and  _490
REMARK  209  A    between atoms: _489  and  _492
REMARK  210  A    between atoms: _492  and  _493
REMARK  211  A    between atoms: _496  and  _498
REMARK  212  A    between atoms: _498  and  _499
REMARK  213  A    between atoms: _498  and  _501
REMARK  214  A    between atoms: _501  and  _502
REMARK  215  A    between atoms: _507  and  _508
REMARK  216  A    between atoms: _510  and  _512
REMARK  217  A    between atoms: _512  and  _513
REMARK  218  A    between atoms: _512  and  _515
REMARK  219  A    between atoms: _515  and  _516
REMARK                            x       y       z     vdW  Elec       q    Type
REMARK                         _______ _______ _______ _____ _____    ______ ____
ROOT
ATOM      1  O   HOH     1       6.592  71.177   4.786  0.00  0.00    +0.000 OA
ENDROOT
TORSDOF 0
REMARK  Name = ../refined-set-2016/2vwl/2vwl_pocket.pdb
REMARK  219 active torsions:
REMARK  status: ('A' for Active; 'I' for Inactive)
REMARK    1  A    between atoms: _1  and  _5
REMARK    2  A    between atoms: _5  and  _6
REMARK    3  A    between atoms: _5  and  _8
REMARK    4  A    between atoms: _8  and  _9
REMARK    5  A    between atoms: _12  and  _14
REMARK    6  A    between atoms: _14  and  _15
REMARK    7  A    between atoms: _14  and  _17
REMARK    8  A    between atoms: _20  and  _22
REMARK    9  A    between atoms: _22  and  _23
REMARK   10  A    between atoms: _22  and  _25
REMARK   11  A    between atoms: _25  and  _26
REMARK   12  A    between atoms: _31  and  _33
REMARK   13  A    between atoms: _33  and  _34
REMARK   14  A    between atoms: _33  and  _36
REMARK   15  A    between atoms: _36  and  _37
REMARK   16  A    between atoms: _37  and  _38
REMARK   17  A    between atoms: _43  and  _45
REMARK   18  A    between atoms: _45  and  _46
REMARK   19  A    between atoms: _45  and  _48
REMARK   20  A    between atoms: _48  and  _49
REMARK   21  A    between atoms: _52  and  _54
REMARK   22  A    between atoms: _54  and  _55
REMARK   23  A    between atoms: _54  and  _57
REMARK   24  A    between atoms: _57  and  _58
REMARK   25  A    between atoms: _58  and  _59
REMARK   26  A    between atoms: _59  and  _60
REMARK   27  A    between atoms: _60  and  _61
REMARK   28  A    between atoms: _65  and  _67
REMARK   29  A    between atoms: _67  and  _68
REMARK   30  A    between atoms: _67  and  _70
REMARK   31  A    between atoms: _70  and  _71
REMARK   32  A    between atoms: _71  and  _72
REMARK   33  A    between atoms: _75  and  _77
REMARK   34  A    between atoms: _77  and  _78
REMARK   35  A    between atoms: _77  and  _80
REMARK   36  A    between atoms: _80  and  _81
REMARK   37  A    between atoms: _84  and  _86
REMARK   38  A    between atoms: _86  and  _87
REMARK   39  A    between atoms: _86  and  _89
REMARK   40  A    between atoms: _89  and  _90
REMARK   41  A    between atoms: _95  and  _96
REMARK   42  A    between atoms: _98  and  _100
REMARK   43  A    between atoms: _100  and  _101
REMARK   44  A    between atoms: _100  and  _103
REMARK   45  A    between atoms: _103  and  _104
REMARK   46  A    between atoms: _107  and  _109
REMARK   47  A    between atoms: _109  and  _110
REMARK   48  A    between atoms: _109  and  _112
REMARK   49  A    between atoms: _112  and  _113
REMARK   50  A    between atoms: _116  and  _118
REMARK   51  A    between atoms: _118  and  _119
REMARK   52  A    between atoms: _118  and  _121
REMARK   53  A    between atoms: _124  and  _126
REMARK   54  A    between atoms: _126  and  _127
REMARK   55  A    between atoms: _126  and  _129
REMARK   56  A    between atoms: _129  and  _130
REMARK   57  A    between atoms: _130  and  _131
REMARK   58  A    between atoms: _131  and  _132
REMARK   59  A    between atoms: _141  and  _143
REMARK   60  A    between atoms: _143  and  _144
REMARK   61  A    between atoms: _143  and  _146
REMARK   62  A    between atoms: _146  and  _147
REMARK   63  A    between atoms: _152  and  _154
REMARK   64  A    between atoms: _154  and  _155
REMARK   65  A    between atoms: _154  and  _157
REMARK   66  A    between atoms: _157  and  _158
REMARK   67  A    between atoms: _158  and  _159
REMARK   68  A    between atoms: _162  and  _164
REMARK   69  A    between atoms: _164  and  _165
REMARK   70  A    between atoms: _164  and  _167
REMARK   71  A    between atoms: _167  and  _168
REMARK   72  A    between atoms: _168  and  _169
REMARK   73  A    between atoms: _169  and  _170
REMARK   74  A    between atoms: _170  and  _171
REMARK   75  A    between atoms: _175  and  _177
REMARK   76  A    between atoms: _177  and  _178
REMARK   77  A    between atoms: _177  and  _180
REMARK   78  A    between atoms: _183  and  _185
REMARK   79  A    between atoms: _185  and  _186
REMARK   80  A    between atoms: _185  and  _188
REMARK   81  A    between atoms: _188  and  _189
REMARK   82  A    between atoms: _191  and  _193
REMARK   83  A    between atoms: _193  and  _194
REMARK   84  A    between atoms: _193  and  _196
REMARK   85  A    between atoms: _196  and  _197
REMARK   86  A    between atoms: _199  and  _201
REMARK   87  A    between atoms: _201  and  _202
REMARK   88  A    between atoms: _201  and  _204
REMARK   89  A    between atoms: _204  and  _205
REMARK   90  A    between atoms: _211  and  _213
REMARK   91  A    between atoms: _213  and  _214
REMARK   92  A    between atoms: _213  and  _216
REMARK   93  A    between atoms: _216  and  _217
REMARK   94  A    between atoms: _220  and  _222
REMARK   95  A    between atoms: _222  and  _223
REMARK   96  A    between atoms: _222  and  _225
REMARK   97  A    between atoms: _225  and  _226
REMARK   98  A    between atoms: _229  and  _231
REMARK   99  A    between atoms: _231  and  _232
REMARK  100  A    between atoms: _231  and  _234
REMARK  101  A    between atoms: _234  and  _235
REMARK  102  A    between atoms: _238  and  _240
REMARK  103  A    between atoms: _240  and  _241
REMARK  104  A    between atoms: _240  and  _243
REMARK  105  A    between atoms: _243  and  _244
REMARK  106  A    between atoms: _244  and  _245
REMARK  107  A    between atoms: _247  and  _249
REMARK  108  A    between atoms: _249  and  _250
REMARK  109  A    between atoms: _249  and  _252
REMARK  110  A    between atoms: _252  and  _253
REMARK  111  A    between atoms: _259  and  _261
REMARK  112  A    between atoms: _261  and  _262
REMARK  113  A    between atoms: _261  and  _264
REMARK  114  A    between atoms: _266  and  _268
REMARK  115  A    between atoms: _268  and  _269
REMARK  116  A    between atoms: _272  and  _274
REMARK  117  A    between atoms: _274  and  _275
REMARK  118  A    between atoms: _277  and  _279
REMARK  119  A    between atoms: _279  and  _280
REMARK  120  A    between atoms: _279  and  _282
REMARK  121  A    between atoms: _282  and  _283
REMARK  122  A    between atoms: _283  and  _284
REMARK  123  A    between atoms: _287  and  _289
REMARK  124  A    between atoms: _289  and  _290
REMARK  125  A    between atoms: _289  and  _292
REMARK  126  A    between atoms: _292  and  _293
REMARK  127  A    between atoms: _296  and  _298
REMARK  128  A    between atoms: _298  and  _299
REMARK  129  A    between atoms: _302  and  _304
REMARK  130  A    between atoms: _304  and  _305
REMARK  131  A    between atoms: _304  and  _307
REMARK  132  A    between atoms: _307  and  _308
REMARK  133  A    between atoms: _308  and  _431
REMARK  134  A    between atoms: _309  and  _311
REMARK  135  A    between atoms: _311  and  _312
REMARK  136  A    between atoms: _311  and  _314
REMARK  137  A    between atoms: _314  and  _315
REMARK  138  A    between atoms: _315  and  _316
REMARK  139  A    between atoms: _321  and  _323
REMARK  140  A    between atoms: _323  and  _324
REMARK  141  A    between atoms: _326  and  _328
REMARK  142  A    between atoms: _328  and  _329
REMARK  143  A    between atoms: _328  and  _331
REMARK  144  A    between atoms: _331  and  _332
REMARK  145  A    between atoms: _335  and  _337
REMARK  146  A    between atoms: _337  and  _338
REMARK  147  A    between atoms: _337  and  _340
REMARK  148  A    between atoms: _340  and  _341
REMARK  149  A    between atoms: _343  and  _345
REMARK  150  A    between atoms: _345  and  _346
REMARK  151  A    between atoms: _348  and  _350
REMARK  152  A    between atoms: _350  and  _351
REMARK  153  A    between atoms: _353  and  _355
REMARK  154  A    between atoms: _355  and  _356
REMARK  155  A    between atoms: _355  and  _358
REMARK  156  A    between atoms: _358  and  _359
REMARK  157  A    between atoms: _364  and  _366
REMARK  158  A    between atoms: _366  and  _367
REMARK  159  A    between atoms: _366  and  _369
REMARK  160  A    between atoms: _369  and  _370
REMARK  161  A    between atoms: _373  and  _375
REMARK  162  A    between atoms: _375  and  _376
REMARK  163  A    between atoms: _375  and  _378
REMARK  164  A    between atoms: _381  and  _383
REMARK  165  A    between atoms: _383  and  _384
REMARK  166  A    between atoms: _383  and  _386
REMARK  167  A    between atoms: _386  and  _387
REMARK  168  A    between atoms: _389  and  _391
REMARK  169  A    between atoms: _391  and  _392
REMARK  170  A    between atoms: _391  and  _394
REMARK  171  A    between atoms: _394  and  _395
REMARK  172  A    between atoms: _405  and  _407
REMARK  173  A    between atoms: _407  and  _408
REMARK  174  A    between atoms: _410  and  _412
REMARK  175  A    between atoms: _412  and  _413
REMARK  176  A    between atoms: _412  and  _415
REMARK  177  A    between atoms: _415  and  _416
REMARK  178  A    between atoms: _416  and  _417
REMARK  179  A    between atoms: _420  and  _422
REMARK  180  A    between atoms: _422  and  _423
REMARK  181  A    between atoms: _425  and  _427
REMARK  182  A    between atoms: _427  and  _428
REMARK  183  A    between atoms: _427  and  _430
REMARK  184  A    between atoms: _430  and  _431
REMARK  185  A    between atoms: _432  and  _434
REMARK  186  A    between atoms: _434  and  _435
REMARK  187  A    between atoms: _438  and  _440
REMARK  188  A    between atoms: _440  and  _441
REMARK  189  A    between atoms: _440  and  _443
REMARK  190  A    between atoms: _443  and  _444
REMARK  191  A    between atoms: _444  and  _445
REMARK  192  A    between atoms: _445  and  _446
REMARK  193  A    between atoms: _455  and  _457
REMARK  194  A    between atoms: _457  and  _458
REMARK  195  A    between atoms: _457  and  _460
REMARK  196  A    between atoms: _460  and  _461
REMARK  197  A    between atoms: _461  and  _462
REMARK  198  A    between atoms: _462  and  _463
REMARK  199  A    between atoms: _463  and  _464
REMARK  200  A    between atoms: _468  and  _470
REMARK  201  A    between atoms: _470  and  _471
REMARK  202  A    between atoms: _470  and  _473
REMARK  203  A    between atoms: _473  and  _474
REMARK  204  A    between atoms: _479  and  _480
REMARK  205  A    between atoms: _482  and  _484
REMARK  206  A    between atoms: _484  and  _485
REMARK  207  A    between atoms: _487  and  _489
REMARK  208  A    between atoms: _489  and  _490
REMARK  209  A    between atoms: _489  and  _492
REMARK  210  A    between atoms: _492  and  _493
REMARK  211  A    between atoms: _496  and  _498
REMARK  212  A    between atoms: _498  and  _499
REMARK  213  A    between atoms: _498  and  _501
REMARK  214  A    between atoms: _501  and  _502
REMARK  215  A    between atoms: _507  and  _508
REMARK  216  A    between atoms: _510  and  _512
REMARK  217  A    between atoms: _512  and  _513
REMARK  218  A    between atoms: _512  and  _515
REMARK  219  A    between atoms: _515  and  _516
REMARK                            x       y       z     vdW  Elec       q    Type
REMARK                         _______ _______ _______ _____ _____    ______ ____
ROOT
ATOM      1  O   HOH     1       3.955  53.674   5.395  0.00  0.00    +0.000 OA
ENDROOT
TORSDOF 0
REMARK  Name = ../refined-set-2016/2vwl/2vwl_pocket.pdb
REMARK  219 active torsions:
REMARK  status: ('A' for Active; 'I' for Inactive)
REMARK    1  A    between atoms: _1  and  _5
REMARK    2  A    between atoms: _5  and  _6
REMARK    3  A    between atoms: _5  and  _8
REMARK    4  A    between atoms: _8  and  _9
REMARK    5  A    between atoms: _12  and  _14
REMARK    6  A    between atoms: _14  and  _15
REMARK    7  A    between atoms: _14  and  _17
REMARK    8  A    between atoms: _20  and  _22
REMARK    9  A    between atoms: _22  and  _23
REMARK   10  A    between atoms: _22  and  _25
REMARK   11  A    between atoms: _25  and  _26
REMARK   12  A    between atoms: _31  and  _33
REMARK   13  A    between atoms: _33  and  _34
REMARK   14  A    between atoms: _33  and  _36
REMARK   15  A    between atoms: _36  and  _37
REMARK   16  A    between atoms: _37  and  _38
REMARK   17  A    between atoms: _43  and  _45
REMARK   18  A    between atoms: _45  and  _46
REMARK   19  A    between atoms: _45  and  _48
REMARK   20  A    between atoms: _48  and  _49
REMARK   21  A    between atoms: _52  and  _54
REMARK   22  A    between atoms: _54  and  _55
REMARK   23  A    between atoms: _54  and  _57
REMARK   24  A    between atoms: _57  and  _58
REMARK   25  A    between atoms: _58  and  _59
REMARK   26  A    between atoms: _59  and  _60
REMARK   27  A    between atoms: _60  and  _61
REMARK   28  A    between atoms: _65  and  _67
REMARK   29  A    between atoms: _67  and  _68
REMARK   30  A    between atoms: _67  and  _70
REMARK   31  A    between atoms: _70  and  _71
REMARK   32  A    between atoms: _71  and  _72
REMARK   33  A    between atoms: _75  and  _77
REMARK   34  A    between atoms: _77  and  _78
REMARK   35  A    between atoms: _77  and  _80
REMARK   36  A    between atoms: _80  and  _81
REMARK   37  A    between atoms: _84  and  _86
REMARK   38  A    between atoms: _86  and  _87
REMARK   39  A    between atoms: _86  and  _89
REMARK   40  A    between atoms: _89  and  _90
REMARK   41  A    between atoms: _95  and  _96
REMARK   42  A    between atoms: _98  and  _100
REMARK   43  A    between atoms: _100  and  _101
REMARK   44  A    between atoms: _100  and  _103
REMARK   45  A    between atoms: _103  and  _104
REMARK   46  A    between atoms: _107  and  _109
REMARK   47  A    between atoms: _109  and  _110
REMARK   48  A    between atoms: _109  and  _112
REMARK   49  A    between atoms: _112  and  _113
REMARK   50  A    between atoms: _116  and  _118
REMARK   51  A    between atoms: _118  and  _119
REMARK   52  A    between atoms: _118  and  _121
REMARK   53  A    between atoms: _124  and  _126
REMARK   54  A    between atoms: _126  and  _127
REMARK   55  A    between atoms: _126  and  _129
REMARK   56  A    between atoms: _129  and  _130
REMARK   57  A    between atoms: _130  and  _131
REMARK   58  A    between atoms: _131  and  _132
REMARK   59  A    between atoms: _141  and  _143
REMARK   60  A    between atoms: _143  and  _144
REMARK   61  A    between atoms: _143  and  _146
REMARK   62  A    between atoms: _146  and  _147
REMARK   63  A    between atoms: _152  and  _154
REMARK   64  A    between atoms: _154  and  _155
REMARK   65  A    between atoms: _154  and  _157
REMARK   66  A    between atoms: _157  and  _158
REMARK   67  A    between atoms: _158  and  _159
REMARK   68  A    between atoms: _162  and  _164
REMARK   69  A    between atoms: _164  and  _165
REMARK   70  A    between atoms: _164  and  _167
REMARK   71  A    between atoms: _167  and  _168
REMARK   72  A    between atoms: _168  and  _169
REMARK   73  A    between atoms: _169  and  _170
REMARK   74  A    between atoms: _170  and  _171
REMARK   75  A    between atoms: _175  and  _177
REMARK   76  A    between atoms: _177  and  _178
REMARK   77  A    between atoms: _177  and  _180
REMARK   78  A    between atoms: _183  and  _185
REMARK   79  A    between atoms: _185  and  _186
REMARK   80  A    between atoms: _185  and  _188
REMARK   81  A    between atoms: _188  and  _189
REMARK   82  A    between atoms: _191  and  _193
REMARK   83  A    between atoms: _193  and  _194
REMARK   84  A    between atoms: _193  and  _196
REMARK   85  A    between atoms: _196  and  _197
REMARK   86  A    between atoms: _199  and  _201
REMARK   87  A    between atoms: _201  and  _202
REMARK   88  A    between atoms: _201  and  _204
REMARK   89  A    between atoms: _204  and  _205
REMARK   90  A    between atoms: _211  and  _213
REMARK   91  A    between atoms: _213  and  _214
REMARK   92  A    between atoms: _213  and  _216
REMARK   93  A    between atoms: _216  and  _217
REMARK   94  A    between atoms: _220  and  _222
REMARK   95  A    between atoms: _222  and  _223
REMARK   96  A    between atoms: _222  and  _225
REMARK   97  A    between atoms: _225  and  _226
REMARK   98  A    between atoms: _229  and  _231
REMARK   99  A    between atoms: _231  and  _232
REMARK  100  A    between atoms: _231  and  _234
REMARK  101  A    between atoms: _234  and  _235
REMARK  102  A    between atoms: _238  and  _240
REMARK  103  A    between atoms: _240  and  _241
REMARK  104  A    between atoms: _240  and  _243
REMARK  105  A    between atoms: _243  and  _244
REMARK  106  A    between atoms: _244  and  _245
REMARK  107  A    between atoms: _247  and  _249
REMARK  108  A    between atoms: _249  and  _250
REMARK  109  A    between atoms: _249  and  _252
REMARK  110  A    between atoms: _252  and  _253
REMARK  111  A    between atoms: _259  and  _261
REMARK  112  A    between atoms: _261  and  _262
REMARK  113  A    between atoms: _261  and  _264
REMARK  114  A    between atoms: _266  and  _268
REMARK  115  A    between atoms: _268  and  _269
REMARK  116  A    between atoms: _272  and  _274
REMARK  117  A    between atoms: _274  and  _275
REMARK  118  A    between atoms: _277  and  _279
REMARK  119  A    between atoms: _279  and  _280
REMARK  120  A    between atoms: _279  and  _282
REMARK  121  A    between atoms: _282  and  _283
REMARK  122  A    between atoms: _283  and  _284
REMARK  123  A    between atoms: _287  and  _289
REMARK  124  A    between atoms: _289  and  _290
REMARK  125  A    between atoms: _289  and  _292
REMARK  126  A    between atoms: _292  and  _293
REMARK  127  A    between atoms: _296  and  _298
REMARK  128  A    between atoms: _298  and  _299
REMARK  129  A    between atoms: _302  and  _304
REMARK  130  A    between atoms: _304  and  _305
REMARK  131  A    between atoms: _304  and  _307
REMARK  132  A    between atoms: _307  and  _308
REMARK  133  A    between atoms: _308  and  _431
REMARK  134  A    between atoms: _309  and  _311
REMARK  135  A    between atoms: _311  and  _312
REMARK  136  A    between atoms: _311  and  _314
REMARK  137  A    between atoms: _314  and  _315
REMARK  138  A    between atoms: _315  and  _316
REMARK  139  A    between atoms: _321  and  _323
REMARK  140  A    between atoms: _323  and  _324
REMARK  141  A    between atoms: _326  and  _328
REMARK  142  A    between atoms: _328  and  _329
REMARK  143  A    between atoms: _328  and  _331
REMARK  144  A    between atoms: _331  and  _332
REMARK  145  A    between atoms: _335  and  _337
REMARK  146  A    between atoms: _337  and  _338
REMARK  147  A    between atoms: _337  and  _340
REMARK  148  A    between atoms: _340  and  _341
REMARK  149  A    between atoms: _343  and  _345
REMARK  150  A    between atoms: _345  and  _346
REMARK  151  A    between atoms: _348  and  _350
REMARK  152  A    between atoms: _350  and  _351
REMARK  153  A    between atoms: _353  and  _355
REMARK  154  A    between atoms: _355  and  _356
REMARK  155  A    between atoms: _355  and  _358
REMARK  156  A    between atoms: _358  and  _359
REMARK  157  A    between atoms: _364  and  _366
REMARK  158  A    between atoms: _366  and  _367
REMARK  159  A    between atoms: _366  and  _369
REMARK  160  A    between atoms: _369  and  _370
REMARK  161  A    between atoms: _373  and  _375
REMARK  162  A    between atoms: _375  and  _376
REMARK  163  A    between atoms: _375  and  _378
REMARK  164  A    between atoms: _381  and  _383
REMARK  165  A    between atoms: _383  and  _384
REMARK  166  A    between atoms: _383  and  _386
REMARK  167  A    between atoms: _386  and  _387
REMARK  168  A    between atoms: _389  and  _391
REMARK  169  A    between atoms: _391  and  _392
REMARK  170  A    between atoms: _391  and  _394
REMARK  171  A    between atoms: _394  and  _395
REMARK  172  A    between atoms: _405  and  _407
REMARK  173  A    between atoms: _407  and  _408
REMARK  174  A    between atoms: _410  and  _412
REMARK  175  A    between atoms: _412  and  _413
REMARK  176  A    between atoms: _412  and  _415
REMARK  177  A    between atoms: _415  and  _416
REMARK  178  A    between atoms: _416  and  _417
REMARK  179  A    between atoms: _420  and  _422
REMARK  180  A    between atoms: _422  and  _423
REMARK  181  A    between atoms: _425  and  _427
REMARK  182  A    between atoms: _427  and  _428
REMARK  183  A    between atoms: _427  and  _430
REMARK  184  A    between atoms: _430  and  _431
REMARK  185  A    between atoms: _432  and  _434
REMARK  186  A    between atoms: _434  and  _435
REMARK  187  A    between atoms: _438  and  _440
REMARK  188  A    between atoms: _440  and  _441
REMARK  189  A    between atoms: _440  and  _443
REMARK  190  A    between atoms: _443  and  _444
REMARK  191  A    between atoms: _444  and  _445
REMARK  192  A    between atoms: _445  and  _446
REMARK  193  A    between atoms: _455  and  _457
REMARK  194  A    between atoms: _457  and  _458
REMARK  195  A    between atoms: _457  and  _460
REMARK  196  A    between atoms: _460  and  _461
REMARK  197  A    between atoms: _461  and  _462
REMARK  198  A    between atoms: _462  and  _463
REMARK  199  A    between atoms: _463  and  _464
REMARK  200  A    between atoms: _468  and  _470
REMARK  201  A    between atoms: _470  and  _471
REMARK  202  A    between atoms: _470  and  _473
REMARK  203  A    between atoms: _473  and  _474
REMARK  204  A    between atoms: _479  and  _480
REMARK  205  A    between atoms: _482  and  _484
REMARK  206  A    between atoms: _484  and  _485
REMARK  207  A    between atoms: _487  and  _489
REMARK  208  A    between atoms: _489  and  _490
REMARK  209  A    between atoms: _489  and  _492
REMARK  210  A    between atoms: _492  and  _493
REMARK  211  A    between atoms: _496  and  _498
REMARK  212  A    between atoms: _498  and  _499
REMARK  213  A    between atoms: _498  and  _501
REMARK  214  A    between atoms: _501  and  _502
REMARK  215  A    between atoms: _507  and  _508
REMARK  216  A    between atoms: _510  and  _512
REMARK  217  A    between atoms: _512  and  _513
REMARK  218  A    between atoms: _512  and  _515
REMARK  219  A    between atoms: _515  and  _516
REMARK                            x       y       z     vdW  Elec       q    Type
REMARK                         _______ _______ _______ _____ _____    ______ ____
ROOT
ATOM      1  O   HOH     1      16.284  65.713  14.062  0.00  0.00    +0.000 OA
ENDROOT
TORSDOF 0
REMARK  Name = ../refined-set-2016/2vwl/2vwl_pocket.pdb
REMARK  219 active torsions:
REMARK  status: ('A' for Active; 'I' for Inactive)
REMARK    1  A    between atoms: _1  and  _5
REMARK    2  A    between atoms: _5  and  _6
REMARK    3  A    between atoms: _5  and  _8
REMARK    4  A    between atoms: _8  and  _9
REMARK    5  A    between atoms: _12  and  _14
REMARK    6  A    between atoms: _14  and  _15
REMARK    7  A    between atoms: _14  and  _17
REMARK    8  A    between atoms: _20  and  _22
REMARK    9  A    between atoms: _22  and  _23
REMARK   10  A    between atoms: _22  and  _25
REMARK   11  A    between atoms: _25  and  _26
REMARK   12  A    between atoms: _31  and  _33
REMARK   13  A    between atoms: _33  and  _34
REMARK   14  A    between atoms: _33  and  _36
REMARK   15  A    between atoms: _36  and  _37
REMARK   16  A    between atoms: _37  and  _38
REMARK   17  A    between atoms: _43  and  _45
REMARK   18  A    between atoms: _45  and  _46
REMARK   19  A    between atoms: _45  and  _48
REMARK   20  A    between atoms: _48  and  _49
REMARK   21  A    between atoms: _52  and  _54
REMARK   22  A    between atoms: _54  and  _55
REMARK   23  A    between atoms: _54  and  _57
REMARK   24  A    between atoms: _57  and  _58
REMARK   25  A    between atoms: _58  and  _59
REMARK   26  A    between atoms: _59  and  _60
REMARK   27  A    between atoms: _60  and  _61
REMARK   28  A    between atoms: _65  and  _67
REMARK   29  A    between atoms: _67  and  _68
REMARK   30  A    between atoms: _67  and  _70
REMARK   31  A    between atoms: _70  and  _71
REMARK   32  A    between atoms: _71  and  _72
REMARK   33  A    between atoms: _75  and  _77
REMARK   34  A    between atoms: _77  and  _78
REMARK   35  A    between atoms: _77  and  _80
REMARK   36  A    between atoms: _80  and  _81
REMARK   37  A    between atoms: _84  and  _86
REMARK   38  A    between atoms: _86  and  _87
REMARK   39  A    between atoms: _86  and  _89
REMARK   40  A    between atoms: _89  and  _90
REMARK   41  A    between atoms: _95  and  _96
REMARK   42  A    between atoms: _98  and  _100
REMARK   43  A    between atoms: _100  and  _101
REMARK   44  A    between atoms: _100  and  _103
REMARK   45  A    between atoms: _103  and  _104
REMARK   46  A    between atoms: _107  and  _109
REMARK   47  A    between atoms: _109  and  _110
REMARK   48  A    between atoms: _109  and  _112
REMARK   49  A    between atoms: _112  and  _113
REMARK   50  A    between atoms: _116  and  _118
REMARK   51  A    between atoms: _118  and  _119
REMARK   52  A    between atoms: _118  and  _121
REMARK   53  A    between atoms: _124  and  _126
REMARK   54  A    between atoms: _126  and  _127
REMARK   55  A    between atoms: _126  and  _129
REMARK   56  A    between atoms: _129  and  _130
REMARK   57  A    between atoms: _130  and  _131
REMARK   58  A    between atoms: _131  and  _132
REMARK   59  A    between atoms: _141  and  _143
REMARK   60  A    between atoms: _143  and  _144
REMARK   61  A    between atoms: _143  and  _146
REMARK   62  A    between atoms: _146  and  _147
REMARK   63  A    between atoms: _152  and  _154
REMARK   64  A    between atoms: _154  and  _155
REMARK   65  A    between atoms: _154  and  _157
REMARK   66  A    between atoms: _157  and  _158
REMARK   67  A    between atoms: _158  and  _159
REMARK   68  A    between atoms: _162  and  _164
REMARK   69  A    between atoms: _164  and  _165
REMARK   70  A    between atoms: _164  and  _167
REMARK   71  A    between atoms: _167  and  _168
REMARK   72  A    between atoms: _168  and  _169
REMARK   73  A    between atoms: _169  and  _170
REMARK   74  A    between atoms: _170  and  _171
REMARK   75  A    between atoms: _175  and  _177
REMARK   76  A    between atoms: _177  and  _178
REMARK   77  A    between atoms: _177  and  _180
REMARK   78  A    between atoms: _183  and  _185
REMARK   79  A    between atoms: _185  and  _186
REMARK   80  A    between atoms: _185  and  _188
REMARK   81  A    between atoms: _188  and  _189
REMARK   82  A    between atoms: _191  and  _193
REMARK   83  A    between atoms: _193  and  _194
REMARK   84  A    between atoms: _193  and  _196
REMARK   85  A    between atoms: _196  and  _197
REMARK   86  A    between atoms: _199  and  _201
REMARK   87  A    between atoms: _201  and  _202
REMARK   88  A    between atoms: _201  and  _204
REMARK   89  A    between atoms: _204  and  _205
REMARK   90  A    between atoms: _211  and  _213
REMARK   91  A    between atoms: _213  and  _214
REMARK   92  A    between atoms: _213  and  _216
REMARK   93  A    between atoms: _216  and  _217
REMARK   94  A    between atoms: _220  and  _222
REMARK   95  A    between atoms: _222  and  _223
REMARK   96  A    between atoms: _222  and  _225
REMARK   97  A    between atoms: _225  and  _226
REMARK   98  A    between atoms: _229  and  _231
REMARK   99  A    between atoms: _231  and  _232
REMARK  100  A    between atoms: _231  and  _234
REMARK  101  A    between atoms: _234  and  _235
REMARK  102  A    between atoms: _238  and  _240
REMARK  103  A    between atoms: _240  and  _241
REMARK  104  A    between atoms: _240  and  _243
REMARK  105  A    between atoms: _243  and  _244
REMARK  106  A    between atoms: _244  and  _245
REMARK  107  A    between atoms: _247  and  _249
REMARK  108  A    between atoms: _249  and  _250
REMARK  109  A    between atoms: _249  and  _252
REMARK  110  A    between atoms: _252  and  _253
REMARK  111  A    between atoms: _259  and  _261
REMARK  112  A    between atoms: _261  and  _262
REMARK  113  A    between atoms: _261  and  _264
REMARK  114  A    between atoms: _266  and  _268
REMARK  115  A    between atoms: _268  and  _269
REMARK  116  A    between atoms: _272  and  _274
REMARK  117  A    between atoms: _274  and  _275
REMARK  118  A    between atoms: _277  and  _279
REMARK  119  A    between atoms: _279  and  _280
REMARK  120  A    between atoms: _279  and  _282
REMARK  121  A    between atoms: _282  and  _283
REMARK  122  A    between atoms: _283  and  _284
REMARK  123  A    between atoms: _287  and  _289
REMARK  124  A    between atoms: _289  and  _290
REMARK  125  A    between atoms: _289  and  _292
REMARK  126  A    between atoms: _292  and  _293
REMARK  127  A    between atoms: _296  and  _298
REMARK  128  A    between atoms: _298  and  _299
REMARK  129  A    between atoms: _302  and  _304
REMARK  130  A    between atoms: _304  and  _305
REMARK  131  A    between atoms: _304  and  _307
REMARK  132  A    between atoms: _307  and  _308
REMARK  133  A    between atoms: _308  and  _431
REMARK  134  A    between atoms: _309  and  _311
REMARK  135  A    between atoms: _311  and  _312
REMARK  136  A    between atoms: _311  and  _314
REMARK  137  A    between atoms: _314  and  _315
REMARK  138  A    between atoms: _315  and  _316
REMARK  139  A    between atoms: _321  and  _323
REMARK  140  A    between atoms: _323  and  _324
REMARK  141  A    between atoms: _326  and  _328
REMARK  142  A    between atoms: _328  and  _329
REMARK  143  A    between atoms: _328  and  _331
REMARK  144  A    between atoms: _331  and  _332
REMARK  145  A    between atoms: _335  and  _337
REMARK  146  A    between atoms: _337  and  _338
REMARK  147  A    between atoms: _337  and  _340
REMARK  148  A    between atoms: _340  and  _341
REMARK  149  A    between atoms: _343  and  _345
REMARK  150  A    between atoms: _345  and  _346
REMARK  151  A    between atoms: _348  and  _350
REMARK  152  A    between atoms: _350  and  _351
REMARK  153  A    between atoms: _353  and  _355
REMARK  154  A    between atoms: _355  and  _356
REMARK  155  A    between atoms: _355  and  _358
REMARK  156  A    between atoms: _358  and  _359
REMARK  157  A    between atoms: _364  and  _366
REMARK  158  A    between atoms: _366  and  _367
REMARK  159  A    between atoms: _366  and  _369
REMARK  160  A    between atoms: _369  and  _370
REMARK  161  A    between atoms: _373  and  _375
REMARK  162  A    between atoms: _375  and  _376
REMARK  163  A    between atoms: _375  and  _378
REMARK  164  A    between atoms: _381  and  _383
REMARK  165  A    between atoms: _383  and  _384
REMARK  166  A    between atoms: _383  and  _386
REMARK  167  A    between atoms: _386  and  _387
REMARK  168  A    between atoms: _389  and  _391
REMARK  169  A    between atoms: _391  and  _392
REMARK  170  A    between atoms: _391  and  _394
REMARK  171  A    between atoms: _394  and  _395
REMARK  172  A    between atoms: _405  and  _407
REMARK  173  A    between atoms: _407  and  _408
REMARK  174  A    between atoms: _410  and  _412
REMARK  175  A    between atoms: _412  and  _413
REMARK  176  A    between atoms: _412  and  _415
REMARK  177  A    between atoms: _415  and  _416
REMARK  178  A    between atoms: _416  and  _417
REMARK  179  A    between atoms: _420  and  _422
REMARK  180  A    between atoms: _422  and  _423
REMARK  181  A    between atoms: _425  and  _427
REMARK  182  A    between atoms: _427  and  _428
REMARK  183  A    between atoms: _427  and  _430
REMARK  184  A    between atoms: _430  and  _431
REMARK  185  A    between atoms: _432  and  _434
REMARK  186  A    between atoms: _434  and  _435
REMARK  187  A    between atoms: _438  and  _440
REMARK  188  A    between atoms: _440  and  _441
REMARK  189  A    between atoms: _440  and  _443
REMARK  190  A    between atoms: _443  and  _444
REMARK  191  A    between atoms: _444  and  _445
REMARK  192  A    between atoms: _445  and  _446
REMARK  193  A    between atoms: _455  and  _457
REMARK  194  A    between atoms: _457  and  _458
REMARK  195  A    between atoms: _457  and  _460
REMARK  196  A    between atoms: _460  and  _461
REMARK  197  A    between atoms: _461  and  _462
REMARK  198  A    between atoms: _462  and  _463
REMARK  199  A    between atoms: _463  and  _464
REMARK  200  A    between atoms: _468  and  _470
REMARK  201  A    between atoms: _470  and  _471
REMARK  202  A    between atoms: _470  and  _473
REMARK  203  A    between atoms: _473  and  _474
REMARK  204  A    between atoms: _479  and  _480
REMARK  205  A    between atoms: _482  and  _484
REMARK  206  A    between atoms: _484  and  _485
REMARK  207  A    between atoms: _487  and  _489
REMARK  208  A    between atoms: _489  and  _490
REMARK  209  A    between atoms: _489  and  _492
REMARK  210  A    between atoms: _492  and  _493
REMARK  211  A    between atoms: _496  and  _498
REMARK  212  A    between atoms: _498  and  _499
REMARK  213  A    between atoms: _498  and  _501
REMARK  214  A    between atoms: _501  and  _502
REMARK  215  A    between atoms: _507  and  _508
REMARK  216  A    between atoms: _510  and  _512
REMARK  217  A    between atoms: _512  and  _513
REMARK  218  A    between atoms: _512  and  _515
REMARK  219  A    between atoms: _515  and  _516
REMARK                            x       y       z     vdW  Elec       q    Type
REMARK                         _______ _______ _______ _____ _____    ______ ____
ROOT
ATOM      1  O   HOH     1      12.321  64.816  10.177  0.00  0.00    +0.000 OA
ENDROOT
TORSDOF 0
REMARK  Name = ../refined-set-2016/2vwl/2vwl_pocket.pdb
REMARK  219 active torsions:
REMARK  status: ('A' for Active; 'I' for Inactive)
REMARK    1  A    between atoms: _1  and  _5
REMARK    2  A    between atoms: _5  and  _6
REMARK    3  A    between atoms: _5  and  _8
REMARK    4  A    between atoms: _8  and  _9
REMARK    5  A    between atoms: _12  and  _14
REMARK    6  A    between atoms: _14  and  _15
REMARK    7  A    between atoms: _14  and  _17
REMARK    8  A    between atoms: _20  and  _22
REMARK    9  A    between atoms: _22  and  _23
REMARK   10  A    between atoms: _22  and  _25
REMARK   11  A    between atoms: _25  and  _26
REMARK   12  A    between atoms: _31  and  _33
REMARK   13  A    between atoms: _33  and  _34
REMARK   14  A    between atoms: _33  and  _36
REMARK   15  A    between atoms: _36  and  _37
REMARK   16  A    between atoms: _37  and  _38
REMARK   17  A    between atoms: _43  and  _45
REMARK   18  A    between atoms: _45  and  _46
REMARK   19  A    between atoms: _45  and  _48
REMARK   20  A    between atoms: _48  and  _49
REMARK   21  A    between atoms: _52  and  _54
REMARK   22  A    between atoms: _54  and  _55
REMARK   23  A    between atoms: _54  and  _57
REMARK   24  A    between atoms: _57  and  _58
REMARK   25  A    between atoms: _58  and  _59
REMARK   26  A    between atoms: _59  and  _60
REMARK   27  A    between atoms: _60  and  _61
REMARK   28  A    between atoms: _65  and  _67
REMARK   29  A    between atoms: _67  and  _68
REMARK   30  A    between atoms: _67  and  _70
REMARK   31  A    between atoms: _70  and  _71
REMARK   32  A    between atoms: _71  and  _72
REMARK   33  A    between atoms: _75  and  _77
REMARK   34  A    between atoms: _77  and  _78
REMARK   35  A    between atoms: _77  and  _80
REMARK   36  A    between atoms: _80  and  _81
REMARK   37  A    between atoms: _84  and  _86
REMARK   38  A    between atoms: _86  and  _87
REMARK   39  A    between atoms: _86  and  _89
REMARK   40  A    between atoms: _89  and  _90
REMARK   41  A    between atoms: _95  and  _96
REMARK   42  A    between atoms: _98  and  _100
REMARK   43  A    between atoms: _100  and  _101
REMARK   44  A    between atoms: _100  and  _103
REMARK   45  A    between atoms: _103  and  _104
REMARK   46  A    between atoms: _107  and  _109
REMARK   47  A    between atoms: _109  and  _110
REMARK   48  A    between atoms: _109  and  _112
REMARK   49  A    between atoms: _112  and  _113
REMARK   50  A    between atoms: _116  and  _118
REMARK   51  A    between atoms: _118  and  _119
REMARK   52  A    between atoms: _118  and  _121
REMARK   53  A    between atoms: _124  and  _126
REMARK   54  A    between atoms: _126  and  _127
REMARK   55  A    between atoms: _126  and  _129
REMARK   56  A    between atoms: _129  and  _130
REMARK   57  A    between atoms: _130  and  _131
REMARK   58  A    between atoms: _131  and  _132
REMARK   59  A    between atoms: _141  and  _143
REMARK   60  A    between atoms: _143  and  _144
REMARK   61  A    between atoms: _143  and  _146
REMARK   62  A    between atoms: _146  and  _147
REMARK   63  A    between atoms: _152  and  _154
REMARK   64  A    between atoms: _154  and  _155
REMARK   65  A    between atoms: _154  and  _157
REMARK   66  A    between atoms: _157  and  _158
REMARK   67  A    between atoms: _158  and  _159
REMARK   68  A    between atoms: _162  and  _164
REMARK   69  A    between atoms: _164  and  _165
REMARK   70  A    between atoms: _164  and  _167
REMARK   71  A    between atoms: _167  and  _168
REMARK   72  A    between atoms: _168  and  _169
REMARK   73  A    between atoms: _169  and  _170
REMARK   74  A    between atoms: _170  and  _171
REMARK   75  A    between atoms: _175  and  _177
REMARK   76  A    between atoms: _177  and  _178
REMARK   77  A    between atoms: _177  and  _180
REMARK   78  A    between atoms: _183  and  _185
REMARK   79  A    between atoms: _185  and  _186
REMARK   80  A    between atoms: _185  and  _188
REMARK   81  A    between atoms: _188  and  _189
REMARK   82  A    between atoms: _191  and  _193
REMARK   83  A    between atoms: _193  and  _194
REMARK   84  A    between atoms: _193  and  _196
REMARK   85  A    between atoms: _196  and  _197
REMARK   86  A    between atoms: _199  and  _201
REMARK   87  A    between atoms: _201  and  _202
REMARK   88  A    between atoms: _201  and  _204
REMARK   89  A    between atoms: _204  and  _205
REMARK   90  A    between atoms: _211  and  _213
REMARK   91  A    between atoms: _213  and  _214
REMARK   92  A    between atoms: _213  and  _216
REMARK   93  A    between atoms: _216  and  _217
REMARK   94  A    between atoms: _220  and  _222
REMARK   95  A    between atoms: _222  and  _223
REMARK   96  A    between atoms: _222  and  _225
REMARK   97  A    between atoms: _225  and  _226
REMARK   98  A    between atoms: _229  and  _231
REMARK   99  A    between atoms: _231  and  _232
REMARK  100  A    between atoms: _231  and  _234
REMARK  101  A    between atoms: _234  and  _235
REMARK  102  A    between atoms: _238  and  _240
REMARK  103  A    between atoms: _240  and  _241
REMARK  104  A    between atoms: _240  and  _243
REMARK  105  A    between atoms: _243  and  _244
REMARK  106  A    between atoms: _244  and  _245
REMARK  107  A    between atoms: _247  and  _249
REMARK  108  A    between atoms: _249  and  _250
REMARK  109  A    between atoms: _249  and  _252
REMARK  110  A    between atoms: _252  and  _253
REMARK  111  A    between atoms: _259  and  _261
REMARK  112  A    between atoms: _261  and  _262
REMARK  113  A    between atoms: _261  and  _264
REMARK  114  A    between atoms: _266  and  _268
REMARK  115  A    between atoms: _268  and  _269
REMARK  116  A    between atoms: _272  and  _274
REMARK  117  A    between atoms: _274  and  _275
REMARK  118  A    between atoms: _277  and  _279
REMARK  119  A    between atoms: _279  and  _280
REMARK  120  A    between atoms: _279  and  _282
REMARK  121  A    between atoms: _282  and  _283
REMARK  122  A    between atoms: _283  and  _284
REMARK  123  A    between atoms: _287  and  _289
REMARK  124  A    between atoms: _289  and  _290
REMARK  125  A    between atoms: _289  and  _292
REMARK  126  A    between atoms: _292  and  _293
REMARK  127  A    between atoms: _296  and  _298
REMARK  128  A    between atoms: _298  and  _299
REMARK  129  A    between atoms: _302  and  _304
REMARK  130  A    between atoms: _304  and  _305
REMARK  131  A    between atoms: _304  and  _307
REMARK  132  A    between atoms: _307  and  _308
REMARK  133  A    between atoms: _308  and  _431
REMARK  134  A    between atoms: _309  and  _311
REMARK  135  A    between atoms: _311  and  _312
REMARK  136  A    between atoms: _311  and  _314
REMARK  137  A    between atoms: _314  and  _315
REMARK  138  A    between atoms: _315  and  _316
REMARK  139  A    between atoms: _321  and  _323
REMARK  140  A    between atoms: _323  and  _324
REMARK  141  A    between atoms: _326  and  _328
REMARK  142  A    between atoms: _328  and  _329
REMARK  143  A    between atoms: _328  and  _331
REMARK  144  A    between atoms: _331  and  _332
REMARK  145  A    between atoms: _335  and  _337
REMARK  146  A    between atoms: _337  and  _338
REMARK  147  A    between atoms: _337  and  _340
REMARK  148  A    between atoms: _340  and  _341
REMARK  149  A    between atoms: _343  and  _345
REMARK  150  A    between atoms: _345  and  _346
REMARK  151  A    between atoms: _348  and  _350
REMARK  152  A    between atoms: _350  and  _351
REMARK  153  A    between atoms: _353  and  _355
REMARK  154  A    between atoms: _355  and  _356
REMARK  155  A    between atoms: _355  and  _358
REMARK  156  A    between atoms: _358  and  _359
REMARK  157  A    between atoms: _364  and  _366
REMARK  158  A    between atoms: _366  and  _367
REMARK  159  A    between atoms: _366  and  _369
REMARK  160  A    between atoms: _369  and  _370
REMARK  161  A    between atoms: _373  and  _375
REMARK  162  A    between atoms: _375  and  _376
REMARK  163  A    between atoms: _375  and  _378
REMARK  164  A    between atoms: _381  and  _383
REMARK  165  A    between atoms: _383  and  _384
REMARK  166  A    between atoms: _383  and  _386
REMARK  167  A    between atoms: _386  and  _387
REMARK  168  A    between atoms: _389  and  _391
REMARK  169  A    between atoms: _391  and  _392
REMARK  170  A    between atoms: _391  and  _394
REMARK  171  A    between atoms: _394  and  _395
REMARK  172  A    between atoms: _405  and  _407
REMARK  173  A    between atoms: _407  and  _408
REMARK  174  A    between atoms: _410  and  _412
REMARK  175  A    between atoms: _412  and  _413
REMARK  176  A    between atoms: _412  and  _415
REMARK  177  A    between atoms: _415  and  _416
REMARK  178  A    between atoms: _416  and  _417
REMARK  179  A    between atoms: _420  and  _422
REMARK  180  A    between atoms: _422  and  _423
REMARK  181  A    between atoms: _425  and  _427
REMARK  182  A    between atoms: _427  and  _428
REMARK  183  A    between atoms: _427  and  _430
REMARK  184  A    between atoms: _430  and  _431
REMARK  185  A    between atoms: _432  and  _434
REMARK  186  A    between atoms: _434  and  _435
REMARK  187  A    between atoms: _438  and  _440
REMARK  188  A    between atoms: _440  and  _441
REMARK  189  A    between atoms: _440  and  _443
REMARK  190  A    between atoms: _443  and  _444
REMARK  191  A    between atoms: _444  and  _445
REMARK  192  A    between atoms: _445  and  _446
REMARK  193  A    between atoms: _455  and  _457
REMARK  194  A    between atoms: _457  and  _458
REMARK  195  A    between atoms: _457  and  _460
REMARK  196  A    between atoms: _460  and  _461
REMARK  197  A    between atoms: _461  and  _462
REMARK  198  A    between atoms: _462  and  _463
REMARK  199  A    between atoms: _463  and  _464
REMARK  200  A    between atoms: _468  and  _470
REMARK  201  A    between atoms: _470  and  _471
REMARK  202  A    between atoms: _470  and  _473
REMARK  203  A    between atoms: _473  and  _474
REMARK  204  A    between atoms: _479  and  _480
REMARK  205  A    between atoms: _482  and  _484
REMARK  206  A    between atoms: _484  and  _485
REMARK  207  A    between atoms: _487  and  _489
REMARK  208  A    between atoms: _489  and  _490
REMARK  209  A    between atoms: _489  and  _492
REMARK  210  A    between atoms: _492  and  _493
REMARK  211  A    between atoms: _496  and  _498
REMARK  212  A    between atoms: _498  and  _499
REMARK  213  A    between atoms: _498  and  _501
REMARK  214  A    between atoms: _501  and  _502
REMARK  215  A    between atoms: _507  and  _508
REMARK  216  A    between atoms: _510  and  _512
REMARK  217  A    between atoms: _512  and  _513
REMARK  218  A    between atoms: _512  and  _515
REMARK  219  A    between atoms: _515  and  _516
REMARK                            x       y       z     vdW  Elec       q    Type
REMARK                         _______ _______ _______ _____ _____    ______ ____
ROOT
ATOM      1  O   HOH     1      16.184  66.554  -1.678  0.00  0.00    +0.000 OA
ENDROOT
TORSDOF 0
REMARK  Name = ../refined-set-2016/2vwl/2vwl_pocket.pdb
REMARK  219 active torsions:
REMARK  status: ('A' for Active; 'I' for Inactive)
REMARK    1  A    between atoms: _1  and  _5
REMARK    2  A    between atoms: _5  and  _6
REMARK    3  A    between atoms: _5  and  _8
REMARK    4  A    between atoms: _8  and  _9
REMARK    5  A    between atoms: _12  and  _14
REMARK    6  A    between atoms: _14  and  _15
REMARK    7  A    between atoms: _14  and  _17
REMARK    8  A    between atoms: _20  and  _22
REMARK    9  A    between atoms: _22  and  _23
REMARK   10  A    between atoms: _22  and  _25
REMARK   11  A    between atoms: _25  and  _26
REMARK   12  A    between atoms: _31  and  _33
REMARK   13  A    between atoms: _33  and  _34
REMARK   14  A    between atoms: _33  and  _36
REMARK   15  A    between atoms: _36  and  _37
REMARK   16  A    between atoms: _37  and  _38
REMARK   17  A    between atoms: _43  and  _45
REMARK   18  A    between atoms: _45  and  _46
REMARK   19  A    between atoms: _45  and  _48
REMARK   20  A    between atoms: _48  and  _49
REMARK   21  A    between atoms: _52  and  _54
REMARK   22  A    between atoms: _54  and  _55
REMARK   23  A    between atoms: _54  and  _57
REMARK   24  A    between atoms: _57  and  _58
REMARK   25  A    between atoms: _58  and  _59
REMARK   26  A    between atoms: _59  and  _60
REMARK   27  A    between atoms: _60  and  _61
REMARK   28  A    between atoms: _65  and  _67
REMARK   29  A    between atoms: _67  and  _68
REMARK   30  A    between atoms: _67  and  _70
REMARK   31  A    between atoms: _70  and  _71
REMARK   32  A    between atoms: _71  and  _72
REMARK   33  A    between atoms: _75  and  _77
REMARK   34  A    between atoms: _77  and  _78
REMARK   35  A    between atoms: _77  and  _80
REMARK   36  A    between atoms: _80  and  _81
REMARK   37  A    between atoms: _84  and  _86
REMARK   38  A    between atoms: _86  and  _87
REMARK   39  A    between atoms: _86  and  _89
REMARK   40  A    between atoms: _89  and  _90
REMARK   41  A    between atoms: _95  and  _96
REMARK   42  A    between atoms: _98  and  _100
REMARK   43  A    between atoms: _100  and  _101
REMARK   44  A    between atoms: _100  and  _103
REMARK   45  A    between atoms: _103  and  _104
REMARK   46  A    between atoms: _107  and  _109
REMARK   47  A    between atoms: _109  and  _110
REMARK   48  A    between atoms: _109  and  _112
REMARK   49  A    between atoms: _112  and  _113
REMARK   50  A    between atoms: _116  and  _118
REMARK   51  A    between atoms: _118  and  _119
REMARK   52  A    between atoms: _118  and  _121
REMARK   53  A    between atoms: _124  and  _126
REMARK   54  A    between atoms: _126  and  _127
REMARK   55  A    between atoms: _126  and  _129
REMARK   56  A    between atoms: _129  and  _130
REMARK   57  A    between atoms: _130  and  _131
REMARK   58  A    between atoms: _131  and  _132
REMARK   59  A    between atoms: _141  and  _143
REMARK   60  A    between atoms: _143  and  _144
REMARK   61  A    between atoms: _143  and  _146
REMARK   62  A    between atoms: _146  and  _147
REMARK   63  A    between atoms: _152  and  _154
REMARK   64  A    between atoms: _154  and  _155
REMARK   65  A    between atoms: _154  and  _157
REMARK   66  A    between atoms: _157  and  _158
REMARK   67  A    between atoms: _158  and  _159
REMARK   68  A    between atoms: _162  and  _164
REMARK   69  A    between atoms: _164  and  _165
REMARK   70  A    between atoms: _164  and  _167
REMARK   71  A    between atoms: _167  and  _168
REMARK   72  A    between atoms: _168  and  _169
REMARK   73  A    between atoms: _169  and  _170
REMARK   74  A    between atoms: _170  and  _171
REMARK   75  A    between atoms: _175  and  _177
REMARK   76  A    between atoms: _177  and  _178
REMARK   77  A    between atoms: _177  and  _180
REMARK   78  A    between atoms: _183  and  _185
REMARK   79  A    between atoms: _185  and  _186
REMARK   80  A    between atoms: _185  and  _188
REMARK   81  A    between atoms: _188  and  _189
REMARK   82  A    between atoms: _191  and  _193
REMARK   83  A    between atoms: _193  and  _194
REMARK   84  A    between atoms: _193  and  _196
REMARK   85  A    between atoms: _196  and  _197
REMARK   86  A    between atoms: _199  and  _201
REMARK   87  A    between atoms: _201  and  _202
REMARK   88  A    between atoms: _201  and  _204
REMARK   89  A    between atoms: _204  and  _205
REMARK   90  A    between atoms: _211  and  _213
REMARK   91  A    between atoms: _213  and  _214
REMARK   92  A    between atoms: _213  and  _216
REMARK   93  A    between atoms: _216  and  _217
REMARK   94  A    between atoms: _220  and  _222
REMARK   95  A    between atoms: _222  and  _223
REMARK   96  A    between atoms: _222  and  _225
REMARK   97  A    between atoms: _225  and  _226
REMARK   98  A    between atoms: _229  and  _231
REMARK   99  A    between atoms: _231  and  _232
REMARK  100  A    between atoms: _231  and  _234
REMARK  101  A    between atoms: _234  and  _235
REMARK  102  A    between atoms: _238  and  _240
REMARK  103  A    between atoms: _240  and  _241
REMARK  104  A    between atoms: _240  and  _243
REMARK  105  A    between atoms: _243  and  _244
REMARK  106  A    between atoms: _244  and  _245
REMARK  107  A    between atoms: _247  and  _249
REMARK  108  A    between atoms: _249  and  _250
REMARK  109  A    between atoms: _249  and  _252
REMARK  110  A    between atoms: _252  and  _253
REMARK  111  A    between atoms: _259  and  _261
REMARK  112  A    between atoms: _261  and  _262
REMARK  113  A    between atoms: _261  and  _264
REMARK  114  A    between atoms: _266  and  _268
REMARK  115  A    between atoms: _268  and  _269
REMARK  116  A    between atoms: _272  and  _274
REMARK  117  A    between atoms: _274  and  _275
REMARK  118  A    between atoms: _277  and  _279
REMARK  119  A    between atoms: _279  and  _280
REMARK  120  A    between atoms: _279  and  _282
REMARK  121  A    between atoms: _282  and  _283
REMARK  122  A    between atoms: _283  and  _284
REMARK  123  A    between atoms: _287  and  _289
REMARK  124  A    between atoms: _289  and  _290
REMARK  125  A    between atoms: _289  and  _292
REMARK  126  A    between atoms: _292  and  _293
REMARK  127  A    between atoms: _296  and  _298
REMARK  128  A    between atoms: _298  and  _299
REMARK  129  A    between atoms: _302  and  _304
REMARK  130  A    between atoms: _304  and  _305
REMARK  131  A    between atoms: _304  and  _307
REMARK  132  A    between atoms: _307  and  _308
REMARK  133  A    between atoms: _308  and  _431
REMARK  134  A    between atoms: _309  and  _311
REMARK  135  A    between atoms: _311  and  _312
REMARK  136  A    between atoms: _311  and  _314
REMARK  137  A    between atoms: _314  and  _315
REMARK  138  A    between atoms: _315  and  _316
REMARK  139  A    between atoms: _321  and  _323
REMARK  140  A    between atoms: _323  and  _324
REMARK  141  A    between atoms: _326  and  _328
REMARK  142  A    between atoms: _328  and  _329
REMARK  143  A    between atoms: _328  and  _331
REMARK  144  A    between atoms: _331  and  _332
REMARK  145  A    between atoms: _335  and  _337
REMARK  146  A    between atoms: _337  and  _338
REMARK  147  A    between atoms: _337  and  _340
REMARK  148  A    between atoms: _340  and  _341
REMARK  149  A    between atoms: _343  and  _345
REMARK  150  A    between atoms: _345  and  _346
REMARK  151  A    between atoms: _348  and  _350
REMARK  152  A    between atoms: _350  and  _351
REMARK  153  A    between atoms: _353  and  _355
REMARK  154  A    between atoms: _355  and  _356
REMARK  155  A    between atoms: _355  and  _358
REMARK  156  A    between atoms: _358  and  _359
REMARK  157  A    between atoms: _364  and  _366
REMARK  158  A    between atoms: _366  and  _367
REMARK  159  A    between atoms: _366  and  _369
REMARK  160  A    between atoms: _369  and  _370
REMARK  161  A    between atoms: _373  and  _375
REMARK  162  A    between atoms: _375  and  _376
REMARK  163  A    between atoms: _375  and  _378
REMARK  164  A    between atoms: _381  and  _383
REMARK  165  A    between atoms: _383  and  _384
REMARK  166  A    between atoms: _383  and  _386
REMARK  167  A    between atoms: _386  and  _387
REMARK  168  A    between atoms: _389  and  _391
REMARK  169  A    between atoms: _391  and  _392
REMARK  170  A    between atoms: _391  and  _394
REMARK  171  A    between atoms: _394  and  _395
REMARK  172  A    between atoms: _405  and  _407
REMARK  173  A    between atoms: _407  and  _408
REMARK  174  A    between atoms: _410  and  _412
REMARK  175  A    between atoms: _412  and  _413
REMARK  176  A    between atoms: _412  and  _415
REMARK  177  A    between atoms: _415  and  _416
REMARK  178  A    between atoms: _416  and  _417
REMARK  179  A    between atoms: _420  and  _422
REMARK  180  A    between atoms: _422  and  _423
REMARK  181  A    between atoms: _425  and  _427
REMARK  182  A    between atoms: _427  and  _428
REMARK  183  A    between atoms: _427  and  _430
REMARK  184  A    between atoms: _430  and  _431
REMARK  185  A    between atoms: _432  and  _434
REMARK  186  A    between atoms: _434  and  _435
REMARK  187  A    between atoms: _438  and  _440
REMARK  188  A    between atoms: _440  and  _441
REMARK  189  A    between atoms: _440  and  _443
REMARK  190  A    between atoms: _443  and  _444
REMARK  191  A    between atoms: _444  and  _445
REMARK  192  A    between atoms: _445  and  _446
REMARK  193  A    between atoms: _455  and  _457
REMARK  194  A    between atoms: _457  and  _458
REMARK  195  A    between atoms: _457  and  _460
REMARK  196  A    between atoms: _460  and  _461
REMARK  197  A    between atoms: _461  and  _462
REMARK  198  A    between atoms: _462  and  _463
REMARK  199  A    between atoms: _463  and  _464
REMARK  200  A    between atoms: _468  and  _470
REMARK  201  A    between atoms: _470  and  _471
REMARK  202  A    between atoms: _470  and  _473
REMARK  203  A    between atoms: _473  and  _474
REMARK  204  A    between atoms: _479  and  _480
REMARK  205  A    between atoms: _482  and  _484
REMARK  206  A    between atoms: _484  and  _485
REMARK  207  A    between atoms: _487  and  _489
REMARK  208  A    between atoms: _489  and  _490
REMARK  209  A    between atoms: _489  and  _492
REMARK  210  A    between atoms: _492  and  _493
REMARK  211  A    between atoms: _496  and  _498
REMARK  212  A    between atoms: _498  and  _499
REMARK  213  A    between atoms: _498  and  _501
REMARK  214  A    between atoms: _501  and  _502
REMARK  215  A    between atoms: _507  and  _508
REMARK  216  A    between atoms: _510  and  _512
REMARK  217  A    between atoms: _512  and  _513
REMARK  218  A    between atoms: _512  and  _515
REMARK  219  A    between atoms: _515  and  _516
REMARK                            x       y       z     vdW  Elec       q    Type
REMARK                         _______ _______ _______ _____ _____    ______ ____
ROOT
ATOM      1  O   HOH     1      15.176  66.275   0.915  0.00  0.00    +0.000 OA
ENDROOT
TORSDOF 0
REMARK  Name = ../refined-set-2016/2vwl/2vwl_pocket.pdb
REMARK  219 active torsions:
REMARK  status: ('A' for Active; 'I' for Inactive)
REMARK    1  A    between atoms: _1  and  _5
REMARK    2  A    between atoms: _5  and  _6
REMARK    3  A    between atoms: _5  and  _8
REMARK    4  A    between atoms: _8  and  _9
REMARK    5  A    between atoms: _12  and  _14
REMARK    6  A    between atoms: _14  and  _15
REMARK    7  A    between atoms: _14  and  _17
REMARK    8  A    between atoms: _20  and  _22
REMARK    9  A    between atoms: _22  and  _23
REMARK   10  A    between atoms: _22  and  _25
REMARK   11  A    between atoms: _25  and  _26
REMARK   12  A    between atoms: _31  and  _33
REMARK   13  A    between atoms: _33  and  _34
REMARK   14  A    between atoms: _33  and  _36
REMARK   15  A    between atoms: _36  and  _37
REMARK   16  A    between atoms: _37  and  _38
REMARK   17  A    between atoms: _43  and  _45
REMARK   18  A    between atoms: _45  and  _46
REMARK   19  A    between atoms: _45  and  _48
REMARK   20  A    between atoms: _48  and  _49
REMARK   21  A    between atoms: _52  and  _54
REMARK   22  A    between atoms: _54  and  _55
REMARK   23  A    between atoms: _54  and  _57
REMARK   24  A    between atoms: _57  and  _58
REMARK   25  A    between atoms: _58  and  _59
REMARK   26  A    between atoms: _59  and  _60
REMARK   27  A    between atoms: _60  and  _61
REMARK   28  A    between atoms: _65  and  _67
REMARK   29  A    between atoms: _67  and  _68
REMARK   30  A    between atoms: _67  and  _70
REMARK   31  A    between atoms: _70  and  _71
REMARK   32  A    between atoms: _71  and  _72
REMARK   33  A    between atoms: _75  and  _77
REMARK   34  A    between atoms: _77  and  _78
REMARK   35  A    between atoms: _77  and  _80
REMARK   36  A    between atoms: _80  and  _81
REMARK   37  A    between atoms: _84  and  _86
REMARK   38  A    between atoms: _86  and  _87
REMARK   39  A    between atoms: _86  and  _89
REMARK   40  A    between atoms: _89  and  _90
REMARK   41  A    between atoms: _95  and  _96
REMARK   42  A    between atoms: _98  and  _100
REMARK   43  A    between atoms: _100  and  _101
REMARK   44  A    between atoms: _100  and  _103
REMARK   45  A    between atoms: _103  and  _104
REMARK   46  A    between atoms: _107  and  _109
REMARK   47  A    between atoms: _109  and  _110
REMARK   48  A    between atoms: _109  and  _112
REMARK   49  A    between atoms: _112  and  _113
REMARK   50  A    between atoms: _116  and  _118
REMARK   51  A    between atoms: _118  and  _119
REMARK   52  A    between atoms: _118  and  _121
REMARK   53  A    between atoms: _124  and  _126
REMARK   54  A    between atoms: _126  and  _127
REMARK   55  A    between atoms: _126  and  _129
REMARK   56  A    between atoms: _129  and  _130
REMARK   57  A    between atoms: _130  and  _131
REMARK   58  A    between atoms: _131  and  _132
REMARK   59  A    between atoms: _141  and  _143
REMARK   60  A    between atoms: _143  and  _144
REMARK   61  A    between atoms: _143  and  _146
REMARK   62  A    between atoms: _146  and  _147
REMARK   63  A    between atoms: _152  and  _154
REMARK   64  A    between atoms: _154  and  _155
REMARK   65  A    between atoms: _154  and  _157
REMARK   66  A    between atoms: _157  and  _158
REMARK   67  A    between atoms: _158  and  _159
REMARK   68  A    between atoms: _162  and  _164
REMARK   69  A    between atoms: _164  and  _165
REMARK   70  A    between atoms: _164  and  _167
REMARK   71  A    between atoms: _167  and  _168
REMARK   72  A    between atoms: _168  and  _169
REMARK   73  A    between atoms: _169  and  _170
REMARK   74  A    between atoms: _170  and  _171
REMARK   75  A    between atoms: _175  and  _177
REMARK   76  A    between atoms: _177  and  _178
REMARK   77  A    between atoms: _177  and  _180
REMARK   78  A    between atoms: _183  and  _185
REMARK   79  A    between atoms: _185  and  _186
REMARK   80  A    between atoms: _185  and  _188
REMARK   81  A    between atoms: _188  and  _189
REMARK   82  A    between atoms: _191  and  _193
REMARK   83  A    between atoms: _193  and  _194
REMARK   84  A    between atoms: _193  and  _196
REMARK   85  A    between atoms: _196  and  _197
REMARK   86  A    between atoms: _199  and  _201
REMARK   87  A    between atoms: _201  and  _202
REMARK   88  A    between atoms: _201  and  _204
REMARK   89  A    between atoms: _204  and  _205
REMARK   90  A    between atoms: _211  and  _213
REMARK   91  A    between atoms: _213  and  _214
REMARK   92  A    between atoms: _213  and  _216
REMARK   93  A    between atoms: _216  and  _217
REMARK   94  A    between atoms: _220  and  _222
REMARK   95  A    between atoms: _222  and  _223
REMARK   96  A    between atoms: _222  and  _225
REMARK   97  A    between atoms: _225  and  _226
REMARK   98  A    between atoms: _229  and  _231
REMARK   99  A    between atoms: _231  and  _232
REMARK  100  A    between atoms: _231  and  _234
REMARK  101  A    between atoms: _234  and  _235
REMARK  102  A    between atoms: _238  and  _240
REMARK  103  A    between atoms: _240  and  _241
REMARK  104  A    between atoms: _240  and  _243
REMARK  105  A    between atoms: _243  and  _244
REMARK  106  A    between atoms: _244  and  _245
REMARK  107  A    between atoms: _247  and  _249
REMARK  108  A    between atoms: _249  and  _250
REMARK  109  A    between atoms: _249  and  _252
REMARK  110  A    between atoms: _252  and  _253
REMARK  111  A    between atoms: _259  and  _261
REMARK  112  A    between atoms: _261  and  _262
REMARK  113  A    between atoms: _261  and  _264
REMARK  114  A    between atoms: _266  and  _268
REMARK  115  A    between atoms: _268  and  _269
REMARK  116  A    between atoms: _272  and  _274
REMARK  117  A    between atoms: _274  and  _275
REMARK  118  A    between atoms: _277  and  _279
REMARK  119  A    between atoms: _279  and  _280
REMARK  120  A    between atoms: _279  and  _282
REMARK  121  A    between atoms: _282  and  _283
REMARK  122  A    between atoms: _283  and  _284
REMARK  123  A    between atoms: _287  and  _289
REMARK  124  A    between atoms: _289  and  _290
REMARK  125  A    between atoms: _289  and  _292
REMARK  126  A    between atoms: _292  and  _293
REMARK  127  A    between atoms: _296  and  _298
REMARK  128  A    between atoms: _298  and  _299
REMARK  129  A    between atoms: _302  and  _304
REMARK  130  A    between atoms: _304  and  _305
REMARK  131  A    between atoms: _304  and  _307
REMARK  132  A    between atoms: _307  and  _308
REMARK  133  A    between atoms: _308  and  _431
REMARK  134  A    between atoms: _309  and  _311
REMARK  135  A    between atoms: _311  and  _312
REMARK  136  A    between atoms: _311  and  _314
REMARK  137  A    between atoms: _314  and  _315
REMARK  138  A    between atoms: _315  and  _316
REMARK  139  A    between atoms: _321  and  _323
REMARK  140  A    between atoms: _323  and  _324
REMARK  141  A    between atoms: _326  and  _328
REMARK  142  A    between atoms: _328  and  _329
REMARK  143  A    between atoms: _328  and  _331
REMARK  144  A    between atoms: _331  and  _332
REMARK  145  A    between atoms: _335  and  _337
REMARK  146  A    between atoms: _337  and  _338
REMARK  147  A    between atoms: _337  and  _340
REMARK  148  A    between atoms: _340  and  _341
REMARK  149  A    between atoms: _343  and  _345
REMARK  150  A    between atoms: _345  and  _346
REMARK  151  A    between atoms: _348  and  _350
REMARK  152  A    between atoms: _350  and  _351
REMARK  153  A    between atoms: _353  and  _355
REMARK  154  A    between atoms: _355  and  _356
REMARK  155  A    between atoms: _355  and  _358
REMARK  156  A    between atoms: _358  and  _359
REMARK  157  A    between atoms: _364  and  _366
REMARK  158  A    between atoms: _366  and  _367
REMARK  159  A    between atoms: _366  and  _369
REMARK  160  A    between atoms: _369  and  _370
REMARK  161  A    between atoms: _373  and  _375
REMARK  162  A    between atoms: _375  and  _376
REMARK  163  A    between atoms: _375  and  _378
REMARK  164  A    between atoms: _381  and  _383
REMARK  165  A    between atoms: _383  and  _384
REMARK  166  A    between atoms: _383  and  _386
REMARK  167  A    between atoms: _386  and  _387
REMARK  168  A    between atoms: _389  and  _391
REMARK  169  A    between atoms: _391  and  _392
REMARK  170  A    between atoms: _391  and  _394
REMARK  171  A    between atoms: _394  and  _395
REMARK  172  A    between atoms: _405  and  _407
REMARK  173  A    between atoms: _407  and  _408
REMARK  174  A    between atoms: _410  and  _412
REMARK  175  A    between atoms: _412  and  _413
REMARK  176  A    between atoms: _412  and  _415
REMARK  177  A    between atoms: _415  and  _416
REMARK  178  A    between atoms: _416  and  _417
REMARK  179  A    between atoms: _420  and  _422
REMARK  180  A    between atoms: _422  and  _423
REMARK  181  A    between atoms: _425  and  _427
REMARK  182  A    between atoms: _427  and  _428
REMARK  183  A    between atoms: _427  and  _430
REMARK  184  A    between atoms: _430  and  _431
REMARK  185  A    between atoms: _432  and  _434
REMARK  186  A    between atoms: _434  and  _435
REMARK  187  A    between atoms: _438  and  _440
REMARK  188  A    between atoms: _440  and  _441
REMARK  189  A    between atoms: _440  and  _443
REMARK  190  A    between atoms: _443  and  _444
REMARK  191  A    between atoms: _444  and  _445
REMARK  192  A    between atoms: _445  and  _446
REMARK  193  A    between atoms: _455  and  _457
REMARK  194  A    between atoms: _457  and  _458
REMARK  195  A    between atoms: _457  and  _460
REMARK  196  A    between atoms: _460  and  _461
REMARK  197  A    between atoms: _461  and  _462
REMARK  198  A    between atoms: _462  and  _463
REMARK  199  A    between atoms: _463  and  _464
REMARK  200  A    between atoms: _468  and  _470
REMARK  201  A    between atoms: _470  and  _471
REMARK  202  A    between atoms: _470  and  _473
REMARK  203  A    between atoms: _473  and  _474
REMARK  204  A    between atoms: _479  and  _480
REMARK  205  A    between atoms: _482  and  _484
REMARK  206  A    between atoms: _484  and  _485
REMARK  207  A    between atoms: _487  and  _489
REMARK  208  A    between atoms: _489  and  _490
REMARK  209  A    between atoms: _489  and  _492
REMARK  210  A    between atoms: _492  and  _493
REMARK  211  A    between atoms: _496  and  _498
REMARK  212  A    between atoms: _498  and  _499
REMARK  213  A    between atoms: _498  and  _501
REMARK  214  A    between atoms: _501  and  _502
REMARK  215  A    between atoms: _507  and  _508
REMARK  216  A    between atoms: _510  and  _512
REMARK  217  A    between atoms: _512  and  _513
REMARK  218  A    between atoms: _512  and  _515
REMARK  219  A    between atoms: _515  and  _516
REMARK                            x       y       z     vdW  Elec       q    Type
REMARK                         _______ _______ _______ _____ _____    ______ ____
ROOT
ATOM      1  O   HOH     1      12.574  63.451   1.549  0.00  0.00    +0.000 OA
ENDROOT
TORSDOF 0
REMARK  Name = ../refined-set-2016/2vwl/2vwl_pocket.pdb
REMARK  219 active torsions:
REMARK  status: ('A' for Active; 'I' for Inactive)
REMARK    1  A    between atoms: _1  and  _5
REMARK    2  A    between atoms: _5  and  _6
REMARK    3  A    between atoms: _5  and  _8
REMARK    4  A    between atoms: _8  and  _9
REMARK    5  A    between atoms: _12  and  _14
REMARK    6  A    between atoms: _14  and  _15
REMARK    7  A    between atoms: _14  and  _17
REMARK    8  A    between atoms: _20  and  _22
REMARK    9  A    between atoms: _22  and  _23
REMARK   10  A    between atoms: _22  and  _25
REMARK   11  A    between atoms: _25  and  _26
REMARK   12  A    between atoms: _31  and  _33
REMARK   13  A    between atoms: _33  and  _34
REMARK   14  A    between atoms: _33  and  _36
REMARK   15  A    between atoms: _36  and  _37
REMARK   16  A    between atoms: _37  and  _38
REMARK   17  A    between atoms: _43  and  _45
REMARK   18  A    between atoms: _45  and  _46
REMARK   19  A    between atoms: _45  and  _48
REMARK   20  A    between atoms: _48  and  _49
REMARK   21  A    between atoms: _52  and  _54
REMARK   22  A    between atoms: _54  and  _55
REMARK   23  A    between atoms: _54  and  _57
REMARK   24  A    between atoms: _57  and  _58
REMARK   25  A    between atoms: _58  and  _59
REMARK   26  A    between atoms: _59  and  _60
REMARK   27  A    between atoms: _60  and  _61
REMARK   28  A    between atoms: _65  and  _67
REMARK   29  A    between atoms: _67  and  _68
REMARK   30  A    between atoms: _67  and  _70
REMARK   31  A    between atoms: _70  and  _71
REMARK   32  A    between atoms: _71  and  _72
REMARK   33  A    between atoms: _75  and  _77
REMARK   34  A    between atoms: _77  and  _78
REMARK   35  A    between atoms: _77  and  _80
REMARK   36  A    between atoms: _80  and  _81
REMARK   37  A    between atoms: _84  and  _86
REMARK   38  A    between atoms: _86  and  _87
REMARK   39  A    between atoms: _86  and  _89
REMARK   40  A    between atoms: _89  and  _90
REMARK   41  A    between atoms: _95  and  _96
REMARK   42  A    between atoms: _98  and  _100
REMARK   43  A    between atoms: _100  and  _101
REMARK   44  A    between atoms: _100  and  _103
REMARK   45  A    between atoms: _103  and  _104
REMARK   46  A    between atoms: _107  and  _109
REMARK   47  A    between atoms: _109  and  _110
REMARK   48  A    between atoms: _109  and  _112
REMARK   49  A    between atoms: _112  and  _113
REMARK   50  A    between atoms: _116  and  _118
REMARK   51  A    between atoms: _118  and  _119
REMARK   52  A    between atoms: _118  and  _121
REMARK   53  A    between atoms: _124  and  _126
REMARK   54  A    between atoms: _126  and  _127
REMARK   55  A    between atoms: _126  and  _129
REMARK   56  A    between atoms: _129  and  _130
REMARK   57  A    between atoms: _130  and  _131
REMARK   58  A    between atoms: _131  and  _132
REMARK   59  A    between atoms: _141  and  _143
REMARK   60  A    between atoms: _143  and  _144
REMARK   61  A    between atoms: _143  and  _146
REMARK   62  A    between atoms: _146  and  _147
REMARK   63  A    between atoms: _152  and  _154
REMARK   64  A    between atoms: _154  and  _155
REMARK   65  A    between atoms: _154  and  _157
REMARK   66  A    between atoms: _157  and  _158
REMARK   67  A    between atoms: _158  and  _159
REMARK   68  A    between atoms: _162  and  _164
REMARK   69  A    between atoms: _164  and  _165
REMARK   70  A    between atoms: _164  and  _167
REMARK   71  A    between atoms: _167  and  _168
REMARK   72  A    between atoms: _168  and  _169
REMARK   73  A    between atoms: _169  and  _170
REMARK   74  A    between atoms: _170  and  _171
REMARK   75  A    between atoms: _175  and  _177
REMARK   76  A    between atoms: _177  and  _178
REMARK   77  A    between atoms: _177  and  _180
REMARK   78  A    between atoms: _183  and  _185
REMARK   79  A    between atoms: _185  and  _186
REMARK   80  A    between atoms: _185  and  _188
REMARK   81  A    between atoms: _188  and  _189
REMARK   82  A    between atoms: _191  and  _193
REMARK   83  A    between atoms: _193  and  _194
REMARK   84  A    between atoms: _193  and  _196
REMARK   85  A    between atoms: _196  and  _197
REMARK   86  A    between atoms: _199  and  _201
REMARK   87  A    between atoms: _201  and  _202
REMARK   88  A    between atoms: _201  and  _204
REMARK   89  A    between atoms: _204  and  _205
REMARK   90  A    between atoms: _211  and  _213
REMARK   91  A    between atoms: _213  and  _214
REMARK   92  A    between atoms: _213  and  _216
REMARK   93  A    between atoms: _216  and  _217
REMARK   94  A    between atoms: _220  and  _222
REMARK   95  A    between atoms: _222  and  _223
REMARK   96  A    between atoms: _222  and  _225
REMARK   97  A    between atoms: _225  and  _226
REMARK   98  A    between atoms: _229  and  _231
REMARK   99  A    between atoms: _231  and  _232
REMARK  100  A    between atoms: _231  and  _234
REMARK  101  A    between atoms: _234  and  _235
REMARK  102  A    between atoms: _238  and  _240
REMARK  103  A    between atoms: _240  and  _241
REMARK  104  A    between atoms: _240  and  _243
REMARK  105  A    between atoms: _243  and  _244
REMARK  106  A    between atoms: _244  and  _245
REMARK  107  A    between atoms: _247  and  _249
REMARK  108  A    between atoms: _249  and  _250
REMARK  109  A    between atoms: _249  and  _252
REMARK  110  A    between atoms: _252  and  _253
REMARK  111  A    between atoms: _259  and  _261
REMARK  112  A    between atoms: _261  and  _262
REMARK  113  A    between atoms: _261  and  _264
REMARK  114  A    between atoms: _266  and  _268
REMARK  115  A    between atoms: _268  and  _269
REMARK  116  A    between atoms: _272  and  _274
REMARK  117  A    between atoms: _274  and  _275
REMARK  118  A    between atoms: _277  and  _279
REMARK  119  A    between atoms: _279  and  _280
REMARK  120  A    between atoms: _279  and  _282
REMARK  121  A    between atoms: _282  and  _283
REMARK  122  A    between atoms: _283  and  _284
REMARK  123  A    between atoms: _287  and  _289
REMARK  124  A    between atoms: _289  and  _290
REMARK  125  A    between atoms: _289  and  _292
REMARK  126  A    between atoms: _292  and  _293
REMARK  127  A    between atoms: _296  and  _298
REMARK  128  A    between atoms: _298  and  _299
REMARK  129  A    between atoms: _302  and  _304
REMARK  130  A    between atoms: _304  and  _305
REMARK  131  A    between atoms: _304  and  _307
REMARK  132  A    between atoms: _307  and  _308
REMARK  133  A    between atoms: _308  and  _431
REMARK  134  A    between atoms: _309  and  _311
REMARK  135  A    between atoms: _311  and  _312
REMARK  136  A    between atoms: _311  and  _314
REMARK  137  A    between atoms: _314  and  _315
REMARK  138  A    between atoms: _315  and  _316
REMARK  139  A    between atoms: _321  and  _323
REMARK  140  A    between atoms: _323  and  _324
REMARK  141  A    between atoms: _326  and  _328
REMARK  142  A    between atoms: _328  and  _329
REMARK  143  A    between atoms: _328  and  _331
REMARK  144  A    between atoms: _331  and  _332
REMARK  145  A    between atoms: _335  and  _337
REMARK  146  A    between atoms: _337  and  _338
REMARK  147  A    between atoms: _337  and  _340
REMARK  148  A    between atoms: _340  and  _341
REMARK  149  A    between atoms: _343  and  _345
REMARK  150  A    between atoms: _345  and  _346
REMARK  151  A    between atoms: _348  and  _350
REMARK  152  A    between atoms: _350  and  _351
REMARK  153  A    between atoms: _353  and  _355
REMARK  154  A    between atoms: _355  and  _356
REMARK  155  A    between atoms: _355  and  _358
REMARK  156  A    between atoms: _358  and  _359
REMARK  157  A    between atoms: _364  and  _366
REMARK  158  A    between atoms: _366  and  _367
REMARK  159  A    between atoms: _366  and  _369
REMARK  160  A    between atoms: _369  and  _370
REMARK  161  A    between atoms: _373  and  _375
REMARK  162  A    between atoms: _375  and  _376
REMARK  163  A    between atoms: _375  and  _378
REMARK  164  A    between atoms: _381  and  _383
REMARK  165  A    between atoms: _383  and  _384
REMARK  166  A    between atoms: _383  and  _386
REMARK  167  A    between atoms: _386  and  _387
REMARK  168  A    between atoms: _389  and  _391
REMARK  169  A    between atoms: _391  and  _392
REMARK  170  A    between atoms: _391  and  _394
REMARK  171  A    between atoms: _394  and  _395
REMARK  172  A    between atoms: _405  and  _407
REMARK  173  A    between atoms: _407  and  _408
REMARK  174  A    between atoms: _410  and  _412
REMARK  175  A    between atoms: _412  and  _413
REMARK  176  A    between atoms: _412  and  _415
REMARK  177  A    between atoms: _415  and  _416
REMARK  178  A    between atoms: _416  and  _417
REMARK  179  A    between atoms: _420  and  _422
REMARK  180  A    between atoms: _422  and  _423
REMARK  181  A    between atoms: _425  and  _427
REMARK  182  A    between atoms: _427  and  _428
REMARK  183  A    between atoms: _427  and  _430
REMARK  184  A    between atoms: _430  and  _431
REMARK  185  A    between atoms: _432  and  _434
REMARK  186  A    between atoms: _434  and  _435
REMARK  187  A    between atoms: _438  and  _440
REMARK  188  A    between atoms: _440  and  _441
REMARK  189  A    between atoms: _440  and  _443
REMARK  190  A    between atoms: _443  and  _444
REMARK  191  A    between atoms: _444  and  _445
REMARK  192  A    between atoms: _445  and  _446
REMARK  193  A    between atoms: _455  and  _457
REMARK  194  A    between atoms: _457  and  _458
REMARK  195  A    between atoms: _457  and  _460
REMARK  196  A    between atoms: _460  and  _461
REMARK  197  A    between atoms: _461  and  _462
REMARK  198  A    between atoms: _462  and  _463
REMARK  199  A    between atoms: _463  and  _464
REMARK  200  A    between atoms: _468  and  _470
REMARK  201  A    between atoms: _470  and  _471
REMARK  202  A    between atoms: _470  and  _473
REMARK  203  A    between atoms: _473  and  _474
REMARK  204  A    between atoms: _479  and  _480
REMARK  205  A    between atoms: _482  and  _484
REMARK  206  A    between atoms: _484  and  _485
REMARK  207  A    between atoms: _487  and  _489
REMARK  208  A    between atoms: _489  and  _490
REMARK  209  A    between atoms: _489  and  _492
REMARK  210  A    between atoms: _492  and  _493
REMARK  211  A    between atoms: _496  and  _498
REMARK  212  A    between atoms: _498  and  _499
REMARK  213  A    between atoms: _498  and  _501
REMARK  214  A    between atoms: _501  and  _502
REMARK  215  A    between atoms: _507  and  _508
REMARK  216  A    between atoms: _510  and  _512
REMARK  217  A    between atoms: _512  and  _513
REMARK  218  A    between atoms: _512  and  _515
REMARK  219  A    between atoms: _515  and  _516
REMARK                            x       y       z     vdW  Elec       q    Type
REMARK                         _______ _______ _______ _____ _____    ______ ____
ROOT
ATOM      1  O   HOH     1      13.469  55.146   3.375  0.00  0.00    +0.000 OA
ENDROOT
TORSDOF 0
REMARK  Name = ../refined-set-2016/2vwl/2vwl_pocket.pdb
REMARK  219 active torsions:
REMARK  status: ('A' for Active; 'I' for Inactive)
REMARK    1  A    between atoms: _1  and  _5
REMARK    2  A    between atoms: _5  and  _6
REMARK    3  A    between atoms: _5  and  _8
REMARK    4  A    between atoms: _8  and  _9
REMARK    5  A    between atoms: _12  and  _14
REMARK    6  A    between atoms: _14  and  _15
REMARK    7  A    between atoms: _14  and  _17
REMARK    8  A    between atoms: _20  and  _22
REMARK    9  A    between atoms: _22  and  _23
REMARK   10  A    between atoms: _22  and  _25
REMARK   11  A    between atoms: _25  and  _26
REMARK   12  A    between atoms: _31  and  _33
REMARK   13  A    between atoms: _33  and  _34
REMARK   14  A    between atoms: _33  and  _36
REMARK   15  A    between atoms: _36  and  _37
REMARK   16  A    between atoms: _37  and  _38
REMARK   17  A    between atoms: _43  and  _45
REMARK   18  A    between atoms: _45  and  _46
REMARK   19  A    between atoms: _45  and  _48
REMARK   20  A    between atoms: _48  and  _49
REMARK   21  A    between atoms: _52  and  _54
REMARK   22  A    between atoms: _54  and  _55
REMARK   23  A    between atoms: _54  and  _57
REMARK   24  A    between atoms: _57  and  _58
REMARK   25  A    between atoms: _58  and  _59
REMARK   26  A    between atoms: _59  and  _60
REMARK   27  A    between atoms: _60  and  _61
REMARK   28  A    between atoms: _65  and  _67
REMARK   29  A    between atoms: _67  and  _68
REMARK   30  A    between atoms: _67  and  _70
REMARK   31  A    between atoms: _70  and  _71
REMARK   32  A    between atoms: _71  and  _72
REMARK   33  A    between atoms: _75  and  _77
REMARK   34  A    between atoms: _77  and  _78
REMARK   35  A    between atoms: _77  and  _80
REMARK   36  A    between atoms: _80  and  _81
REMARK   37  A    between atoms: _84  and  _86
REMARK   38  A    between atoms: _86  and  _87
REMARK   39  A    between atoms: _86  and  _89
REMARK   40  A    between atoms: _89  and  _90
REMARK   41  A    between atoms: _95  and  _96
REMARK   42  A    between atoms: _98  and  _100
REMARK   43  A    between atoms: _100  and  _101
REMARK   44  A    between atoms: _100  and  _103
REMARK   45  A    between atoms: _103  and  _104
REMARK   46  A    between atoms: _107  and  _109
REMARK   47  A    between atoms: _109  and  _110
REMARK   48  A    between atoms: _109  and  _112
REMARK   49  A    between atoms: _112  and  _113
REMARK   50  A    between atoms: _116  and  _118
REMARK   51  A    between atoms: _118  and  _119
REMARK   52  A    between atoms: _118  and  _121
REMARK   53  A    between atoms: _124  and  _126
REMARK   54  A    between atoms: _126  and  _127
REMARK   55  A    between atoms: _126  and  _129
REMARK   56  A    between atoms: _129  and  _130
REMARK   57  A    between atoms: _130  and  _131
REMARK   58  A    between atoms: _131  and  _132
REMARK   59  A    between atoms: _141  and  _143
REMARK   60  A    between atoms: _143  and  _144
REMARK   61  A    between atoms: _143  and  _146
REMARK   62  A    between atoms: _146  and  _147
REMARK   63  A    between atoms: _152  and  _154
REMARK   64  A    between atoms: _154  and  _155
REMARK   65  A    between atoms: _154  and  _157
REMARK   66  A    between atoms: _157  and  _158
REMARK   67  A    between atoms: _158  and  _159
REMARK   68  A    between atoms: _162  and  _164
REMARK   69  A    between atoms: _164  and  _165
REMARK   70  A    between atoms: _164  and  _167
REMARK   71  A    between atoms: _167  and  _168
REMARK   72  A    between atoms: _168  and  _169
REMARK   73  A    between atoms: _169  and  _170
REMARK   74  A    between atoms: _170  and  _171
REMARK   75  A    between atoms: _175  and  _177
REMARK   76  A    between atoms: _177  and  _178
REMARK   77  A    between atoms: _177  and  _180
REMARK   78  A    between atoms: _183  and  _185
REMARK   79  A    between atoms: _185  and  _186
REMARK   80  A    between atoms: _185  and  _188
REMARK   81  A    between atoms: _188  and  _189
REMARK   82  A    between atoms: _191  and  _193
REMARK   83  A    between atoms: _193  and  _194
REMARK   84  A    between atoms: _193  and  _196
REMARK   85  A    between atoms: _196  and  _197
REMARK   86  A    between atoms: _199  and  _201
REMARK   87  A    between atoms: _201  and  _202
REMARK   88  A    between atoms: _201  and  _204
REMARK   89  A    between atoms: _204  and  _205
REMARK   90  A    between atoms: _211  and  _213
REMARK   91  A    between atoms: _213  and  _214
REMARK   92  A    between atoms: _213  and  _216
REMARK   93  A    between atoms: _216  and  _217
REMARK   94  A    between atoms: _220  and  _222
REMARK   95  A    between atoms: _222  and  _223
REMARK   96  A    between atoms: _222  and  _225
REMARK   97  A    between atoms: _225  and  _226
REMARK   98  A    between atoms: _229  and  _231
REMARK   99  A    between atoms: _231  and  _232
REMARK  100  A    between atoms: _231  and  _234
REMARK  101  A    between atoms: _234  and  _235
REMARK  102  A    between atoms: _238  and  _240
REMARK  103  A    between atoms: _240  and  _241
REMARK  104  A    between atoms: _240  and  _243
REMARK  105  A    between atoms: _243  and  _244
REMARK  106  A    between atoms: _244  and  _245
REMARK  107  A    between atoms: _247  and  _249
REMARK  108  A    between atoms: _249  and  _250
REMARK  109  A    between atoms: _249  and  _252
REMARK  110  A    between atoms: _252  and  _253
REMARK  111  A    between atoms: _259  and  _261
REMARK  112  A    between atoms: _261  and  _262
REMARK  113  A    between atoms: _261  and  _264
REMARK  114  A    between atoms: _266  and  _268
REMARK  115  A    between atoms: _268  and  _269
REMARK  116  A    between atoms: _272  and  _274
REMARK  117  A    between atoms: _274  and  _275
REMARK  118  A    between atoms: _277  and  _279
REMARK  119  A    between atoms: _279  and  _280
REMARK  120  A    between atoms: _279  and  _282
REMARK  121  A    between atoms: _282  and  _283
REMARK  122  A    between atoms: _283  and  _284
REMARK  123  A    between atoms: _287  and  _289
REMARK  124  A    between atoms: _289  and  _290
REMARK  125  A    between atoms: _289  and  _292
REMARK  126  A    between atoms: _292  and  _293
REMARK  127  A    between atoms: _296  and  _298
REMARK  128  A    between atoms: _298  and  _299
REMARK  129  A    between atoms: _302  and  _304
REMARK  130  A    between atoms: _304  and  _305
REMARK  131  A    between atoms: _304  and  _307
REMARK  132  A    between atoms: _307  and  _308
REMARK  133  A    between atoms: _308  and  _431
REMARK  134  A    between atoms: _309  and  _311
REMARK  135  A    between atoms: _311  and  _312
REMARK  136  A    between atoms: _311  and  _314
REMARK  137  A    between atoms: _314  and  _315
REMARK  138  A    between atoms: _315  and  _316
REMARK  139  A    between atoms: _321  and  _323
REMARK  140  A    between atoms: _323  and  _324
REMARK  141  A    between atoms: _326  and  _328
REMARK  142  A    between atoms: _328  and  _329
REMARK  143  A    between atoms: _328  and  _331
REMARK  144  A    between atoms: _331  and  _332
REMARK  145  A    between atoms: _335  and  _337
REMARK  146  A    between atoms: _337  and  _338
REMARK  147  A    between atoms: _337  and  _340
REMARK  148  A    between atoms: _340  and  _341
REMARK  149  A    between atoms: _343  and  _345
REMARK  150  A    between atoms: _345  and  _346
REMARK  151  A    between atoms: _348  and  _350
REMARK  152  A    between atoms: _350  and  _351
REMARK  153  A    between atoms: _353  and  _355
REMARK  154  A    between atoms: _355  and  _356
REMARK  155  A    between atoms: _355  and  _358
REMARK  156  A    between atoms: _358  and  _359
REMARK  157  A    between atoms: _364  and  _366
REMARK  158  A    between atoms: _366  and  _367
REMARK  159  A    between atoms: _366  and  _369
REMARK  160  A    between atoms: _369  and  _370
REMARK  161  A    between atoms: _373  and  _375
REMARK  162  A    between atoms: _375  and  _376
REMARK  163  A    between atoms: _375  and  _378
REMARK  164  A    between atoms: _381  and  _383
REMARK  165  A    between atoms: _383  and  _384
REMARK  166  A    between atoms: _383  and  _386
REMARK  167  A    between atoms: _386  and  _387
REMARK  168  A    between atoms: _389  and  _391
REMARK  169  A    between atoms: _391  and  _392
REMARK  170  A    between atoms: _391  and  _394
REMARK  171  A    between atoms: _394  and  _395
REMARK  172  A    between atoms: _405  and  _407
REMARK  173  A    between atoms: _407  and  _408
REMARK  174  A    between atoms: _410  and  _412
REMARK  175  A    between atoms: _412  and  _413
REMARK  176  A    between atoms: _412  and  _415
REMARK  177  A    between atoms: _415  and  _416
REMARK  178  A    between atoms: _416  and  _417
REMARK  179  A    between atoms: _420  and  _422
REMARK  180  A    between atoms: _422  and  _423
REMARK  181  A    between atoms: _425  and  _427
REMARK  182  A    between atoms: _427  and  _428
REMARK  183  A    between atoms: _427  and  _430
REMARK  184  A    between atoms: _430  and  _431
REMARK  185  A    between atoms: _432  and  _434
REMARK  186  A    between atoms: _434  and  _435
REMARK  187  A    between atoms: _438  and  _440
REMARK  188  A    between atoms: _440  and  _441
REMARK  189  A    between atoms: _440  and  _443
REMARK  190  A    between atoms: _443  and  _444
REMARK  191  A    between atoms: _444  and  _445
REMARK  192  A    between atoms: _445  and  _446
REMARK  193  A    between atoms: _455  and  _457
REMARK  194  A    between atoms: _457  and  _458
REMARK  195  A    between atoms: _457  and  _460
REMARK  196  A    between atoms: _460  and  _461
REMARK  197  A    between atoms: _461  and  _462
REMARK  198  A    between atoms: _462  and  _463
REMARK  199  A    between atoms: _463  and  _464
REMARK  200  A    between atoms: _468  and  _470
REMARK  201  A    between atoms: _470  and  _471
REMARK  202  A    between atoms: _470  and  _473
REMARK  203  A    between atoms: _473  and  _474
REMARK  204  A    between atoms: _479  and  _480
REMARK  205  A    between atoms: _482  and  _484
REMARK  206  A    between atoms: _484  and  _485
REMARK  207  A    between atoms: _487  and  _489
REMARK  208  A    between atoms: _489  and  _490
REMARK  209  A    between atoms: _489  and  _492
REMARK  210  A    between atoms: _492  and  _493
REMARK  211  A    between atoms: _496  and  _498
REMARK  212  A    between atoms: _498  and  _499
REMARK  213  A    between atoms: _498  and  _501
REMARK  214  A    between atoms: _501  and  _502
REMARK  215  A    between atoms: _507  and  _508
REMARK  216  A    between atoms: _510  and  _512
REMARK  217  A    between atoms: _512  and  _513
REMARK  218  A    between atoms: _512  and  _515
REMARK  219  A    between atoms: _515  and  _516
REMARK                            x       y       z     vdW  Elec       q    Type
REMARK                         _______ _______ _______ _____ _____    ______ ____
ROOT
ATOM      1  O   HOH     1       3.154  64.673  10.709  0.00  0.00    +0.000 OA
ENDROOT
TORSDOF 0
REMARK  Name = ../refined-set-2016/2vwl/2vwl_pocket.pdb
REMARK  219 active torsions:
REMARK  status: ('A' for Active; 'I' for Inactive)
REMARK    1  A    between atoms: _1  and  _5
REMARK    2  A    between atoms: _5  and  _6
REMARK    3  A    between atoms: _5  and  _8
REMARK    4  A    between atoms: _8  and  _9
REMARK    5  A    between atoms: _12  and  _14
REMARK    6  A    between atoms: _14  and  _15
REMARK    7  A    between atoms: _14  and  _17
REMARK    8  A    between atoms: _20  and  _22
REMARK    9  A    between atoms: _22  and  _23
REMARK   10  A    between atoms: _22  and  _25
REMARK   11  A    between atoms: _25  and  _26
REMARK   12  A    between atoms: _31  and  _33
REMARK   13  A    between atoms: _33  and  _34
REMARK   14  A    between atoms: _33  and  _36
REMARK   15  A    between atoms: _36  and  _37
REMARK   16  A    between atoms: _37  and  _38
REMARK   17  A    between atoms: _43  and  _45
REMARK   18  A    between atoms: _45  and  _46
REMARK   19  A    between atoms: _45  and  _48
REMARK   20  A    between atoms: _48  and  _49
REMARK   21  A    between atoms: _52  and  _54
REMARK   22  A    between atoms: _54  and  _55
REMARK   23  A    between atoms: _54  and  _57
REMARK   24  A    between atoms: _57  and  _58
REMARK   25  A    between atoms: _58  and  _59
REMARK   26  A    between atoms: _59  and  _60
REMARK   27  A    between atoms: _60  and  _61
REMARK   28  A    between atoms: _65  and  _67
REMARK   29  A    between atoms: _67  and  _68
REMARK   30  A    between atoms: _67  and  _70
REMARK   31  A    between atoms: _70  and  _71
REMARK   32  A    between atoms: _71  and  _72
REMARK   33  A    between atoms: _75  and  _77
REMARK   34  A    between atoms: _77  and  _78
REMARK   35  A    between atoms: _77  and  _80
REMARK   36  A    between atoms: _80  and  _81
REMARK   37  A    between atoms: _84  and  _86
REMARK   38  A    between atoms: _86  and  _87
REMARK   39  A    between atoms: _86  and  _89
REMARK   40  A    between atoms: _89  and  _90
REMARK   41  A    between atoms: _95  and  _96
REMARK   42  A    between atoms: _98  and  _100
REMARK   43  A    between atoms: _100  and  _101
REMARK   44  A    between atoms: _100  and  _103
REMARK   45  A    between atoms: _103  and  _104
REMARK   46  A    between atoms: _107  and  _109
REMARK   47  A    between atoms: _109  and  _110
REMARK   48  A    between atoms: _109  and  _112
REMARK   49  A    between atoms: _112  and  _113
REMARK   50  A    between atoms: _116  and  _118
REMARK   51  A    between atoms: _118  and  _119
REMARK   52  A    between atoms: _118  and  _121
REMARK   53  A    between atoms: _124  and  _126
REMARK   54  A    between atoms: _126  and  _127
REMARK   55  A    between atoms: _126  and  _129
REMARK   56  A    between atoms: _129  and  _130
REMARK   57  A    between atoms: _130  and  _131
REMARK   58  A    between atoms: _131  and  _132
REMARK   59  A    between atoms: _141  and  _143
REMARK   60  A    between atoms: _143  and  _144
REMARK   61  A    between atoms: _143  and  _146
REMARK   62  A    between atoms: _146  and  _147
REMARK   63  A    between atoms: _152  and  _154
REMARK   64  A    between atoms: _154  and  _155
REMARK   65  A    between atoms: _154  and  _157
REMARK   66  A    between atoms: _157  and  _158
REMARK   67  A    between atoms: _158  and  _159
REMARK   68  A    between atoms: _162  and  _164
REMARK   69  A    between atoms: _164  and  _165
REMARK   70  A    between atoms: _164  and  _167
REMARK   71  A    between atoms: _167  and  _168
REMARK   72  A    between atoms: _168  and  _169
REMARK   73  A    between atoms: _169  and  _170
REMARK   74  A    between atoms: _170  and  _171
REMARK   75  A    between atoms: _175  and  _177
REMARK   76  A    between atoms: _177  and  _178
REMARK   77  A    between atoms: _177  and  _180
REMARK   78  A    between atoms: _183  and  _185
REMARK   79  A    between atoms: _185  and  _186
REMARK   80  A    between atoms: _185  and  _188
REMARK   81  A    between atoms: _188  and  _189
REMARK   82  A    between atoms: _191  and  _193
REMARK   83  A    between atoms: _193  and  _194
REMARK   84  A    between atoms: _193  and  _196
REMARK   85  A    between atoms: _196  and  _197
REMARK   86  A    between atoms: _199  and  _201
REMARK   87  A    between atoms: _201  and  _202
REMARK   88  A    between atoms: _201  and  _204
REMARK   89  A    between atoms: _204  and  _205
REMARK   90  A    between atoms: _211  and  _213
REMARK   91  A    between atoms: _213  and  _214
REMARK   92  A    between atoms: _213  and  _216
REMARK   93  A    between atoms: _216  and  _217
REMARK   94  A    between atoms: _220  and  _222
REMARK   95  A    between atoms: _222  and  _223
REMARK   96  A    between atoms: _222  and  _225
REMARK   97  A    between atoms: _225  and  _226
REMARK   98  A    between atoms: _229  and  _231
REMARK   99  A    between atoms: _231  and  _232
REMARK  100  A    between atoms: _231  and  _234
REMARK  101  A    between atoms: _234  and  _235
REMARK  102  A    between atoms: _238  and  _240
REMARK  103  A    between atoms: _240  and  _241
REMARK  104  A    between atoms: _240  and  _243
REMARK  105  A    between atoms: _243  and  _244
REMARK  106  A    between atoms: _244  and  _245
REMARK  107  A    between atoms: _247  and  _249
REMARK  108  A    between atoms: _249  and  _250
REMARK  109  A    between atoms: _249  and  _252
REMARK  110  A    between atoms: _252  and  _253
REMARK  111  A    between atoms: _259  and  _261
REMARK  112  A    between atoms: _261  and  _262
REMARK  113  A    between atoms: _261  and  _264
REMARK  114  A    between atoms: _266  and  _268
REMARK  115  A    between atoms: _268  and  _269
REMARK  116  A    between atoms: _272  and  _274
REMARK  117  A    between atoms: _274  and  _275
REMARK  118  A    between atoms: _277  and  _279
REMARK  119  A    between atoms: _279  and  _280
REMARK  120  A    between atoms: _279  and  _282
REMARK  121  A    between atoms: _282  and  _283
REMARK  122  A    between atoms: _283  and  _284
REMARK  123  A    between atoms: _287  and  _289
REMARK  124  A    between atoms: _289  and  _290
REMARK  125  A    between atoms: _289  and  _292
REMARK  126  A    between atoms: _292  and  _293
REMARK  127  A    between atoms: _296  and  _298
REMARK  128  A    between atoms: _298  and  _299
REMARK  129  A    between atoms: _302  and  _304
REMARK  130  A    between atoms: _304  and  _305
REMARK  131  A    between atoms: _304  and  _307
REMARK  132  A    between atoms: _307  and  _308
REMARK  133  A    between atoms: _308  and  _431
REMARK  134  A    between atoms: _309  and  _311
REMARK  135  A    between atoms: _311  and  _312
REMARK  136  A    between atoms: _311  and  _314
REMARK  137  A    between atoms: _314  and  _315
REMARK  138  A    between atoms: _315  and  _316
REMARK  139  A    between atoms: _321  and  _323
REMARK  140  A    between atoms: _323  and  _324
REMARK  141  A    between atoms: _326  and  _328
REMARK  142  A    between atoms: _328  and  _329
REMARK  143  A    between atoms: _328  and  _331
REMARK  144  A    between atoms: _331  and  _332
REMARK  145  A    between atoms: _335  and  _337
REMARK  146  A    between atoms: _337  and  _338
REMARK  147  A    between atoms: _337  and  _340
REMARK  148  A    between atoms: _340  and  _341
REMARK  149  A    between atoms: _343  and  _345
REMARK  150  A    between atoms: _345  and  _346
REMARK  151  A    between atoms: _348  and  _350
REMARK  152  A    between atoms: _350  and  _351
REMARK  153  A    between atoms: _353  and  _355
REMARK  154  A    between atoms: _355  and  _356
REMARK  155  A    between atoms: _355  and  _358
REMARK  156  A    between atoms: _358  and  _359
REMARK  157  A    between atoms: _364  and  _366
REMARK  158  A    between atoms: _366  and  _367
REMARK  159  A    between atoms: _366  and  _369
REMARK  160  A    between atoms: _369  and  _370
REMARK  161  A    between atoms: _373  and  _375
REMARK  162  A    between atoms: _375  and  _376
REMARK  163  A    between atoms: _375  and  _378
REMARK  164  A    between atoms: _381  and  _383
REMARK  165  A    between atoms: _383  and  _384
REMARK  166  A    between atoms: _383  and  _386
REMARK  167  A    between atoms: _386  and  _387
REMARK  168  A    between atoms: _389  and  _391
REMARK  169  A    between atoms: _391  and  _392
REMARK  170  A    between atoms: _391  and  _394
REMARK  171  A    between atoms: _394  and  _395
REMARK  172  A    between atoms: _405  and  _407
REMARK  173  A    between atoms: _407  and  _408
REMARK  174  A    between atoms: _410  and  _412
REMARK  175  A    between atoms: _412  and  _413
REMARK  176  A    between atoms: _412  and  _415
REMARK  177  A    between atoms: _415  and  _416
REMARK  178  A    between atoms: _416  and  _417
REMARK  179  A    between atoms: _420  and  _422
REMARK  180  A    between atoms: _422  and  _423
REMARK  181  A    between atoms: _425  and  _427
REMARK  182  A    between atoms: _427  and  _428
REMARK  183  A    between atoms: _427  and  _430
REMARK  184  A    between atoms: _430  and  _431
REMARK  185  A    between atoms: _432  and  _434
REMARK  186  A    between atoms: _434  and  _435
REMARK  187  A    between atoms: _438  and  _440
REMARK  188  A    between atoms: _440  and  _441
REMARK  189  A    between atoms: _440  and  _443
REMARK  190  A    between atoms: _443  and  _444
REMARK  191  A    between atoms: _444  and  _445
REMARK  192  A    between atoms: _445  and  _446
REMARK  193  A    between atoms: _455  and  _457
REMARK  194  A    between atoms: _457  and  _458
REMARK  195  A    between atoms: _457  and  _460
REMARK  196  A    between atoms: _460  and  _461
REMARK  197  A    between atoms: _461  and  _462
REMARK  198  A    between atoms: _462  and  _463
REMARK  199  A    between atoms: _463  and  _464
REMARK  200  A    between atoms: _468  and  _470
REMARK  201  A    between atoms: _470  and  _471
REMARK  202  A    between atoms: _470  and  _473
REMARK  203  A    between atoms: _473  and  _474
REMARK  204  A    between atoms: _479  and  _480
REMARK  205  A    between atoms: _482  and  _484
REMARK  206  A    between atoms: _484  and  _485
REMARK  207  A    between atoms: _487  and  _489
REMARK  208  A    between atoms: _489  and  _490
REMARK  209  A    between atoms: _489  and  _492
REMARK  210  A    between atoms: _492  and  _493
REMARK  211  A    between atoms: _496  and  _498
REMARK  212  A    between atoms: _498  and  _499
REMARK  213  A    between atoms: _498  and  _501
REMARK  214  A    between atoms: _501  and  _502
REMARK  215  A    between atoms: _507  and  _508
REMARK  216  A    between atoms: _510  and  _512
REMARK  217  A    between atoms: _512  and  _513
REMARK  218  A    between atoms: _512  and  _515
REMARK  219  A    between atoms: _515  and  _516
REMARK                            x       y       z     vdW  Elec       q    Type
REMARK                         _______ _______ _______ _____ _____    ______ ____
ROOT
ATOM      1  O   HOH     1       8.344  59.928  10.853  0.00  0.00    +0.000 OA
ENDROOT
TORSDOF 0
REMARK  Name = ../refined-set-2016/2vwl/2vwl_pocket.pdb
REMARK  219 active torsions:
REMARK  status: ('A' for Active; 'I' for Inactive)
REMARK    1  A    between atoms: _1  and  _5
REMARK    2  A    between atoms: _5  and  _6
REMARK    3  A    between atoms: _5  and  _8
REMARK    4  A    between atoms: _8  and  _9
REMARK    5  A    between atoms: _12  and  _14
REMARK    6  A    between atoms: _14  and  _15
REMARK    7  A    between atoms: _14  and  _17
REMARK    8  A    between atoms: _20  and  _22
REMARK    9  A    between atoms: _22  and  _23
REMARK   10  A    between atoms: _22  and  _25
REMARK   11  A    between atoms: _25  and  _26
REMARK   12  A    between atoms: _31  and  _33
REMARK   13  A    between atoms: _33  and  _34
REMARK   14  A    between atoms: _33  and  _36
REMARK   15  A    between atoms: _36  and  _37
REMARK   16  A    between atoms: _37  and  _38
REMARK   17  A    between atoms: _43  and  _45
REMARK   18  A    between atoms: _45  and  _46
REMARK   19  A    between atoms: _45  and  _48
REMARK   20  A    between atoms: _48  and  _49
REMARK   21  A    between atoms: _52  and  _54
REMARK   22  A    between atoms: _54  and  _55
REMARK   23  A    between atoms: _54  and  _57
REMARK   24  A    between atoms: _57  and  _58
REMARK   25  A    between atoms: _58  and  _59
REMARK   26  A    between atoms: _59  and  _60
REMARK   27  A    between atoms: _60  and  _61
REMARK   28  A    between atoms: _65  and  _67
REMARK   29  A    between atoms: _67  and  _68
REMARK   30  A    between atoms: _67  and  _70
REMARK   31  A    between atoms: _70  and  _71
REMARK   32  A    between atoms: _71  and  _72
REMARK   33  A    between atoms: _75  and  _77
REMARK   34  A    between atoms: _77  and  _78
REMARK   35  A    between atoms: _77  and  _80
REMARK   36  A    between atoms: _80  and  _81
REMARK   37  A    between atoms: _84  and  _86
REMARK   38  A    between atoms: _86  and  _87
REMARK   39  A    between atoms: _86  and  _89
REMARK   40  A    between atoms: _89  and  _90
REMARK   41  A    between atoms: _95  and  _96
REMARK   42  A    between atoms: _98  and  _100
REMARK   43  A    between atoms: _100  and  _101
REMARK   44  A    between atoms: _100  and  _103
REMARK   45  A    between atoms: _103  and  _104
REMARK   46  A    between atoms: _107  and  _109
REMARK   47  A    between atoms: _109  and  _110
REMARK   48  A    between atoms: _109  and  _112
REMARK   49  A    between atoms: _112  and  _113
REMARK   50  A    between atoms: _116  and  _118
REMARK   51  A    between atoms: _118  and  _119
REMARK   52  A    between atoms: _118  and  _121
REMARK   53  A    between atoms: _124  and  _126
REMARK   54  A    between atoms: _126  and  _127
REMARK   55  A    between atoms: _126  and  _129
REMARK   56  A    between atoms: _129  and  _130
REMARK   57  A    between atoms: _130  and  _131
REMARK   58  A    between atoms: _131  and  _132
REMARK   59  A    between atoms: _141  and  _143
REMARK   60  A    between atoms: _143  and  _144
REMARK   61  A    between atoms: _143  and  _146
REMARK   62  A    between atoms: _146  and  _147
REMARK   63  A    between atoms: _152  and  _154
REMARK   64  A    between atoms: _154  and  _155
REMARK   65  A    between atoms: _154  and  _157
REMARK   66  A    between atoms: _157  and  _158
REMARK   67  A    between atoms: _158  and  _159
REMARK   68  A    between atoms: _162  and  _164
REMARK   69  A    between atoms: _164  and  _165
REMARK   70  A    between atoms: _164  and  _167
REMARK   71  A    between atoms: _167  and  _168
REMARK   72  A    between atoms: _168  and  _169
REMARK   73  A    between atoms: _169  and  _170
REMARK   74  A    between atoms: _170  and  _171
REMARK   75  A    between atoms: _175  and  _177
REMARK   76  A    between atoms: _177  and  _178
REMARK   77  A    between atoms: _177  and  _180
REMARK   78  A    between atoms: _183  and  _185
REMARK   79  A    between atoms: _185  and  _186
REMARK   80  A    between atoms: _185  and  _188
REMARK   81  A    between atoms: _188  and  _189
REMARK   82  A    between atoms: _191  and  _193
REMARK   83  A    between atoms: _193  and  _194
REMARK   84  A    between atoms: _193  and  _196
REMARK   85  A    between atoms: _196  and  _197
REMARK   86  A    between atoms: _199  and  _201
REMARK   87  A    between atoms: _201  and  _202
REMARK   88  A    between atoms: _201  and  _204
REMARK   89  A    between atoms: _204  and  _205
REMARK   90  A    between atoms: _211  and  _213
REMARK   91  A    between atoms: _213  and  _214
REMARK   92  A    between atoms: _213  and  _216
REMARK   93  A    between atoms: _216  and  _217
REMARK   94  A    between atoms: _220  and  _222
REMARK   95  A    between atoms: _222  and  _223
REMARK   96  A    between atoms: _222  and  _225
REMARK   97  A    between atoms: _225  and  _226
REMARK   98  A    between atoms: _229  and  _231
REMARK   99  A    between atoms: _231  and  _232
REMARK  100  A    between atoms: _231  and  _234
REMARK  101  A    between atoms: _234  and  _235
REMARK  102  A    between atoms: _238  and  _240
REMARK  103  A    between atoms: _240  and  _241
REMARK  104  A    between atoms: _240  and  _243
REMARK  105  A    between atoms: _243  and  _244
REMARK  106  A    between atoms: _244  and  _245
REMARK  107  A    between atoms: _247  and  _249
REMARK  108  A    between atoms: _249  and  _250
REMARK  109  A    between atoms: _249  and  _252
REMARK  110  A    between atoms: _252  and  _253
REMARK  111  A    between atoms: _259  and  _261
REMARK  112  A    between atoms: _261  and  _262
REMARK  113  A    between atoms: _261  and  _264
REMARK  114  A    between atoms: _266  and  _268
REMARK  115  A    between atoms: _268  and  _269
REMARK  116  A    between atoms: _272  and  _274
REMARK  117  A    between atoms: _274  and  _275
REMARK  118  A    between atoms: _277  and  _279
REMARK  119  A    between atoms: _279  and  _280
REMARK  120  A    between atoms: _279  and  _282
REMARK  121  A    between atoms: _282  and  _283
REMARK  122  A    between atoms: _283  and  _284
REMARK  123  A    between atoms: _287  and  _289
REMARK  124  A    between atoms: _289  and  _290
REMARK  125  A    between atoms: _289  and  _292
REMARK  126  A    between atoms: _292  and  _293
REMARK  127  A    between atoms: _296  and  _298
REMARK  128  A    between atoms: _298  and  _299
REMARK  129  A    between atoms: _302  and  _304
REMARK  130  A    between atoms: _304  and  _305
REMARK  131  A    between atoms: _304  and  _307
REMARK  132  A    between atoms: _307  and  _308
REMARK  133  A    between atoms: _308  and  _431
REMARK  134  A    between atoms: _309  and  _311
REMARK  135  A    between atoms: _311  and  _312
REMARK  136  A    between atoms: _311  and  _314
REMARK  137  A    between atoms: _314  and  _315
REMARK  138  A    between atoms: _315  and  _316
REMARK  139  A    between atoms: _321  and  _323
REMARK  140  A    between atoms: _323  and  _324
REMARK  141  A    between atoms: _326  and  _328
REMARK  142  A    between atoms: _328  and  _329
REMARK  143  A    between atoms: _328  and  _331
REMARK  144  A    between atoms: _331  and  _332
REMARK  145  A    between atoms: _335  and  _337
REMARK  146  A    between atoms: _337  and  _338
REMARK  147  A    between atoms: _337  and  _340
REMARK  148  A    between atoms: _340  and  _341
REMARK  149  A    between atoms: _343  and  _345
REMARK  150  A    between atoms: _345  and  _346
REMARK  151  A    between atoms: _348  and  _350
REMARK  152  A    between atoms: _350  and  _351
REMARK  153  A    between atoms: _353  and  _355
REMARK  154  A    between atoms: _355  and  _356
REMARK  155  A    between atoms: _355  and  _358
REMARK  156  A    between atoms: _358  and  _359
REMARK  157  A    between atoms: _364  and  _366
REMARK  158  A    between atoms: _366  and  _367
REMARK  159  A    between atoms: _366  and  _369
REMARK  160  A    between atoms: _369  and  _370
REMARK  161  A    between atoms: _373  and  _375
REMARK  162  A    between atoms: _375  and  _376
REMARK  163  A    between atoms: _375  and  _378
REMARK  164  A    between atoms: _381  and  _383
REMARK  165  A    between atoms: _383  and  _384
REMARK  166  A    between atoms: _383  and  _386
REMARK  167  A    between atoms: _386  and  _387
REMARK  168  A    between atoms: _389  and  _391
REMARK  169  A    between atoms: _391  and  _392
REMARK  170  A    between atoms: _391  and  _394
REMARK  171  A    between atoms: _394  and  _395
REMARK  172  A    between atoms: _405  and  _407
REMARK  173  A    between atoms: _407  and  _408
REMARK  174  A    between atoms: _410  and  _412
REMARK  175  A    between atoms: _412  and  _413
REMARK  176  A    between atoms: _412  and  _415
REMARK  177  A    between atoms: _415  and  _416
REMARK  178  A    between atoms: _416  and  _417
REMARK  179  A    between atoms: _420  and  _422
REMARK  180  A    between atoms: _422  and  _423
REMARK  181  A    between atoms: _425  and  _427
REMARK  182  A    between atoms: _427  and  _428
REMARK  183  A    between atoms: _427  and  _430
REMARK  184  A    between atoms: _430  and  _431
REMARK  185  A    between atoms: _432  and  _434
REMARK  186  A    between atoms: _434  and  _435
REMARK  187  A    between atoms: _438  and  _440
REMARK  188  A    between atoms: _440  and  _441
REMARK  189  A    between atoms: _440  and  _443
REMARK  190  A    between atoms: _443  and  _444
REMARK  191  A    between atoms: _444  and  _445
REMARK  192  A    between atoms: _445  and  _446
REMARK  193  A    between atoms: _455  and  _457
REMARK  194  A    between atoms: _457  and  _458
REMARK  195  A    between atoms: _457  and  _460
REMARK  196  A    between atoms: _460  and  _461
REMARK  197  A    between atoms: _461  and  _462
REMARK  198  A    between atoms: _462  and  _463
REMARK  199  A    between atoms: _463  and  _464
REMARK  200  A    between atoms: _468  and  _470
REMARK  201  A    between atoms: _470  and  _471
REMARK  202  A    between atoms: _470  and  _473
REMARK  203  A    between atoms: _473  and  _474
REMARK  204  A    between atoms: _479  and  _480
REMARK  205  A    between atoms: _482  and  _484
REMARK  206  A    between atoms: _484  and  _485
REMARK  207  A    between atoms: _487  and  _489
REMARK  208  A    between atoms: _489  and  _490
REMARK  209  A    between atoms: _489  and  _492
REMARK  210  A    between atoms: _492  and  _493
REMARK  211  A    between atoms: _496  and  _498
REMARK  212  A    between atoms: _498  and  _499
REMARK  213  A    between atoms: _498  and  _501
REMARK  214  A    between atoms: _501  and  _502
REMARK  215  A    between atoms: _507  and  _508
REMARK  216  A    between atoms: _510  and  _512
REMARK  217  A    between atoms: _512  and  _513
REMARK  218  A    between atoms: _512  and  _515
REMARK  219  A    between atoms: _515  and  _516
REMARK                            x       y       z     vdW  Elec       q    Type
REMARK                         _______ _______ _______ _____ _____    ______ ____
ROOT
ATOM      1  O   HOH     1      10.481  66.803  11.115  0.00  0.00    +0.000 OA
ENDROOT
TORSDOF 0
REMARK  Name = ../refined-set-2016/2vwl/2vwl_pocket.pdb
REMARK  219 active torsions:
REMARK  status: ('A' for Active; 'I' for Inactive)
REMARK    1  A    between atoms: _1  and  _5
REMARK    2  A    between atoms: _5  and  _6
REMARK    3  A    between atoms: _5  and  _8
REMARK    4  A    between atoms: _8  and  _9
REMARK    5  A    between atoms: _12  and  _14
REMARK    6  A    between atoms: _14  and  _15
REMARK    7  A    between atoms: _14  and  _17
REMARK    8  A    between atoms: _20  and  _22
REMARK    9  A    between atoms: _22  and  _23
REMARK   10  A    between atoms: _22  and  _25
REMARK   11  A    between atoms: _25  and  _26
REMARK   12  A    between atoms: _31  and  _33
REMARK   13  A    between atoms: _33  and  _34
REMARK   14  A    between atoms: _33  and  _36
REMARK   15  A    between atoms: _36  and  _37
REMARK   16  A    between atoms: _37  and  _38
REMARK   17  A    between atoms: _43  and  _45
REMARK   18  A    between atoms: _45  and  _46
REMARK   19  A    between atoms: _45  and  _48
REMARK   20  A    between atoms: _48  and  _49
REMARK   21  A    between atoms: _52  and  _54
REMARK   22  A    between atoms: _54  and  _55
REMARK   23  A    between atoms: _54  and  _57
REMARK   24  A    between atoms: _57  and  _58
REMARK   25  A    between atoms: _58  and  _59
REMARK   26  A    between atoms: _59  and  _60
REMARK   27  A    between atoms: _60  and  _61
REMARK   28  A    between atoms: _65  and  _67
REMARK   29  A    between atoms: _67  and  _68
REMARK   30  A    between atoms: _67  and  _70
REMARK   31  A    between atoms: _70  and  _71
REMARK   32  A    between atoms: _71  and  _72
REMARK   33  A    between atoms: _75  and  _77
REMARK   34  A    between atoms: _77  and  _78
REMARK   35  A    between atoms: _77  and  _80
REMARK   36  A    between atoms: _80  and  _81
REMARK   37  A    between atoms: _84  and  _86
REMARK   38  A    between atoms: _86  and  _87
REMARK   39  A    between atoms: _86  and  _89
REMARK   40  A    between atoms: _89  and  _90
REMARK   41  A    between atoms: _95  and  _96
REMARK   42  A    between atoms: _98  and  _100
REMARK   43  A    between atoms: _100  and  _101
REMARK   44  A    between atoms: _100  and  _103
REMARK   45  A    between atoms: _103  and  _104
REMARK   46  A    between atoms: _107  and  _109
REMARK   47  A    between atoms: _109  and  _110
REMARK   48  A    between atoms: _109  and  _112
REMARK   49  A    between atoms: _112  and  _113
REMARK   50  A    between atoms: _116  and  _118
REMARK   51  A    between atoms: _118  and  _119
REMARK   52  A    between atoms: _118  and  _121
REMARK   53  A    between atoms: _124  and  _126
REMARK   54  A    between atoms: _126  and  _127
REMARK   55  A    between atoms: _126  and  _129
REMARK   56  A    between atoms: _129  and  _130
REMARK   57  A    between atoms: _130  and  _131
REMARK   58  A    between atoms: _131  and  _132
REMARK   59  A    between atoms: _141  and  _143
REMARK   60  A    between atoms: _143  and  _144
REMARK   61  A    between atoms: _143  and  _146
REMARK   62  A    between atoms: _146  and  _147
REMARK   63  A    between atoms: _152  and  _154
REMARK   64  A    between atoms: _154  and  _155
REMARK   65  A    between atoms: _154  and  _157
REMARK   66  A    between atoms: _157  and  _158
REMARK   67  A    between atoms: _158  and  _159
REMARK   68  A    between atoms: _162  and  _164
REMARK   69  A    between atoms: _164  and  _165
REMARK   70  A    between atoms: _164  and  _167
REMARK   71  A    between atoms: _167  and  _168
REMARK   72  A    between atoms: _168  and  _169
REMARK   73  A    between atoms: _169  and  _170
REMARK   74  A    between atoms: _170  and  _171
REMARK   75  A    between atoms: _175  and  _177
REMARK   76  A    between atoms: _177  and  _178
REMARK   77  A    between atoms: _177  and  _180
REMARK   78  A    between atoms: _183  and  _185
REMARK   79  A    between atoms: _185  and  _186
REMARK   80  A    between atoms: _185  and  _188
REMARK   81  A    between atoms: _188  and  _189
REMARK   82  A    between atoms: _191  and  _193
REMARK   83  A    between atoms: _193  and  _194
REMARK   84  A    between atoms: _193  and  _196
REMARK   85  A    between atoms: _196  and  _197
REMARK   86  A    between atoms: _199  and  _201
REMARK   87  A    between atoms: _201  and  _202
REMARK   88  A    between atoms: _201  and  _204
REMARK   89  A    between atoms: _204  and  _205
REMARK   90  A    between atoms: _211  and  _213
REMARK   91  A    between atoms: _213  and  _214
REMARK   92  A    between atoms: _213  and  _216
REMARK   93  A    between atoms: _216  and  _217
REMARK   94  A    between atoms: _220  and  _222
REMARK   95  A    between atoms: _222  and  _223
REMARK   96  A    between atoms: _222  and  _225
REMARK   97  A    between atoms: _225  and  _226
REMARK   98  A    between atoms: _229  and  _231
REMARK   99  A    between atoms: _231  and  _232
REMARK  100  A    between atoms: _231  and  _234
REMARK  101  A    between atoms: _234  and  _235
REMARK  102  A    between atoms: _238  and  _240
REMARK  103  A    between atoms: _240  and  _241
REMARK  104  A    between atoms: _240  and  _243
REMARK  105  A    between atoms: _243  and  _244
REMARK  106  A    between atoms: _244  and  _245
REMARK  107  A    between atoms: _247  and  _249
REMARK  108  A    between atoms: _249  and  _250
REMARK  109  A    between atoms: _249  and  _252
REMARK  110  A    between atoms: _252  and  _253
REMARK  111  A    between atoms: _259  and  _261
REMARK  112  A    between atoms: _261  and  _262
REMARK  113  A    between atoms: _261  and  _264
REMARK  114  A    between atoms: _266  and  _268
REMARK  115  A    between atoms: _268  and  _269
REMARK  116  A    between atoms: _272  and  _274
REMARK  117  A    between atoms: _274  and  _275
REMARK  118  A    between atoms: _277  and  _279
REMARK  119  A    between atoms: _279  and  _280
REMARK  120  A    between atoms: _279  and  _282
REMARK  121  A    between atoms: _282  and  _283
REMARK  122  A    between atoms: _283  and  _284
REMARK  123  A    between atoms: _287  and  _289
REMARK  124  A    between atoms: _289  and  _290
REMARK  125  A    between atoms: _289  and  _292
REMARK  126  A    between atoms: _292  and  _293
REMARK  127  A    between atoms: _296  and  _298
REMARK  128  A    between atoms: _298  and  _299
REMARK  129  A    between atoms: _302  and  _304
REMARK  130  A    between atoms: _304  and  _305
REMARK  131  A    between atoms: _304  and  _307
REMARK  132  A    between atoms: _307  and  _308
REMARK  133  A    between atoms: _308  and  _431
REMARK  134  A    between atoms: _309  and  _311
REMARK  135  A    between atoms: _311  and  _312
REMARK  136  A    between atoms: _311  and  _314
REMARK  137  A    between atoms: _314  and  _315
REMARK  138  A    between atoms: _315  and  _316
REMARK  139  A    between atoms: _321  and  _323
REMARK  140  A    between atoms: _323  and  _324
REMARK  141  A    between atoms: _326  and  _328
REMARK  142  A    between atoms: _328  and  _329
REMARK  143  A    between atoms: _328  and  _331
REMARK  144  A    between atoms: _331  and  _332
REMARK  145  A    between atoms: _335  and  _337
REMARK  146  A    between atoms: _337  and  _338
REMARK  147  A    between atoms: _337  and  _340
REMARK  148  A    between atoms: _340  and  _341
REMARK  149  A    between atoms: _343  and  _345
REMARK  150  A    between atoms: _345  and  _346
REMARK  151  A    between atoms: _348  and  _350
REMARK  152  A    between atoms: _350  and  _351
REMARK  153  A    between atoms: _353  and  _355
REMARK  154  A    between atoms: _355  and  _356
REMARK  155  A    between atoms: _355  and  _358
REMARK  156  A    between atoms: _358  and  _359
REMARK  157  A    between atoms: _364  and  _366
REMARK  158  A    between atoms: _366  and  _367
REMARK  159  A    between atoms: _366  and  _369
REMARK  160  A    between atoms: _369  and  _370
REMARK  161  A    between atoms: _373  and  _375
REMARK  162  A    between atoms: _375  and  _376
REMARK  163  A    between atoms: _375  and  _378
REMARK  164  A    between atoms: _381  and  _383
REMARK  165  A    between atoms: _383  and  _384
REMARK  166  A    between atoms: _383  and  _386
REMARK  167  A    between atoms: _386  and  _387
REMARK  168  A    between atoms: _389  and  _391
REMARK  169  A    between atoms: _391  and  _392
REMARK  170  A    between atoms: _391  and  _394
REMARK  171  A    between atoms: _394  and  _395
REMARK  172  A    between atoms: _405  and  _407
REMARK  173  A    between atoms: _407  and  _408
REMARK  174  A    between atoms: _410  and  _412
REMARK  175  A    between atoms: _412  and  _413
REMARK  176  A    between atoms: _412  and  _415
REMARK  177  A    between atoms: _415  and  _416
REMARK  178  A    between atoms: _416  and  _417
REMARK  179  A    between atoms: _420  and  _422
REMARK  180  A    between atoms: _422  and  _423
REMARK  181  A    between atoms: _425  and  _427
REMARK  182  A    between atoms: _427  and  _428
REMARK  183  A    between atoms: _427  and  _430
REMARK  184  A    between atoms: _430  and  _431
REMARK  185  A    between atoms: _432  and  _434
REMARK  186  A    between atoms: _434  and  _435
REMARK  187  A    between atoms: _438  and  _440
REMARK  188  A    between atoms: _440  and  _441
REMARK  189  A    between atoms: _440  and  _443
REMARK  190  A    between atoms: _443  and  _444
REMARK  191  A    between atoms: _444  and  _445
REMARK  192  A    between atoms: _445  and  _446
REMARK  193  A    between atoms: _455  and  _457
REMARK  194  A    between atoms: _457  and  _458
REMARK  195  A    between atoms: _457  and  _460
REMARK  196  A    between atoms: _460  and  _461
REMARK  197  A    between atoms: _461  and  _462
REMARK  198  A    between atoms: _462  and  _463
REMARK  199  A    between atoms: _463  and  _464
REMARK  200  A    between atoms: _468  and  _470
REMARK  201  A    between atoms: _470  and  _471
REMARK  202  A    between atoms: _470  and  _473
REMARK  203  A    between atoms: _473  and  _474
REMARK  204  A    between atoms: _479  and  _480
REMARK  205  A    between atoms: _482  and  _484
REMARK  206  A    between atoms: _484  and  _485
REMARK  207  A    between atoms: _487  and  _489
REMARK  208  A    between atoms: _489  and  _490
REMARK  209  A    between atoms: _489  and  _492
REMARK  210  A    between atoms: _492  and  _493
REMARK  211  A    between atoms: _496  and  _498
REMARK  212  A    between atoms: _498  and  _499
REMARK  213  A    between atoms: _498  and  _501
REMARK  214  A    between atoms: _501  and  _502
REMARK  215  A    between atoms: _507  and  _508
REMARK  216  A    between atoms: _510  and  _512
REMARK  217  A    between atoms: _512  and  _513
REMARK  218  A    between atoms: _512  and  _515
REMARK  219  A    between atoms: _515  and  _516
REMARK                            x       y       z     vdW  Elec       q    Type
REMARK                         _______ _______ _______ _____ _____    ______ ____
ROOT
ATOM      1  O   HOH     1      13.617  66.003  13.529  0.00  0.00    +0.000 OA
ENDROOT
TORSDOF 0
REMARK  Name = ../refined-set-2016/2vwl/2vwl_pocket.pdb
REMARK  219 active torsions:
REMARK  status: ('A' for Active; 'I' for Inactive)
REMARK    1  A    between atoms: _1  and  _5
REMARK    2  A    between atoms: _5  and  _6
REMARK    3  A    between atoms: _5  and  _8
REMARK    4  A    between atoms: _8  and  _9
REMARK    5  A    between atoms: _12  and  _14
REMARK    6  A    between atoms: _14  and  _15
REMARK    7  A    between atoms: _14  and  _17
REMARK    8  A    between atoms: _20  and  _22
REMARK    9  A    between atoms: _22  and  _23
REMARK   10  A    between atoms: _22  and  _25
REMARK   11  A    between atoms: _25  and  _26
REMARK   12  A    between atoms: _31  and  _33
REMARK   13  A    between atoms: _33  and  _34
REMARK   14  A    between atoms: _33  and  _36
REMARK   15  A    between atoms: _36  and  _37
REMARK   16  A    between atoms: _37  and  _38
REMARK   17  A    between atoms: _43  and  _45
REMARK   18  A    between atoms: _45  and  _46
REMARK   19  A    between atoms: _45  and  _48
REMARK   20  A    between atoms: _48  and  _49
REMARK   21  A    between atoms: _52  and  _54
REMARK   22  A    between atoms: _54  and  _55
REMARK   23  A    between atoms: _54  and  _57
REMARK   24  A    between atoms: _57  and  _58
REMARK   25  A    between atoms: _58  and  _59
REMARK   26  A    between atoms: _59  and  _60
REMARK   27  A    between atoms: _60  and  _61
REMARK   28  A    between atoms: _65  and  _67
REMARK   29  A    between atoms: _67  and  _68
REMARK   30  A    between atoms: _67  and  _70
REMARK   31  A    between atoms: _70  and  _71
REMARK   32  A    between atoms: _71  and  _72
REMARK   33  A    between atoms: _75  and  _77
REMARK   34  A    between atoms: _77  and  _78
REMARK   35  A    between atoms: _77  and  _80
REMARK   36  A    between atoms: _80  and  _81
REMARK   37  A    between atoms: _84  and  _86
REMARK   38  A    between atoms: _86  and  _87
REMARK   39  A    between atoms: _86  and  _89
REMARK   40  A    between atoms: _89  and  _90
REMARK   41  A    between atoms: _95  and  _96
REMARK   42  A    between atoms: _98  and  _100
REMARK   43  A    between atoms: _100  and  _101
REMARK   44  A    between atoms: _100  and  _103
REMARK   45  A    between atoms: _103  and  _104
REMARK   46  A    between atoms: _107  and  _109
REMARK   47  A    between atoms: _109  and  _110
REMARK   48  A    between atoms: _109  and  _112
REMARK   49  A    between atoms: _112  and  _113
REMARK   50  A    between atoms: _116  and  _118
REMARK   51  A    between atoms: _118  and  _119
REMARK   52  A    between atoms: _118  and  _121
REMARK   53  A    between atoms: _124  and  _126
REMARK   54  A    between atoms: _126  and  _127
REMARK   55  A    between atoms: _126  and  _129
REMARK   56  A    between atoms: _129  and  _130
REMARK   57  A    between atoms: _130  and  _131
REMARK   58  A    between atoms: _131  and  _132
REMARK   59  A    between atoms: _141  and  _143
REMARK   60  A    between atoms: _143  and  _144
REMARK   61  A    between atoms: _143  and  _146
REMARK   62  A    between atoms: _146  and  _147
REMARK   63  A    between atoms: _152  and  _154
REMARK   64  A    between atoms: _154  and  _155
REMARK   65  A    between atoms: _154  and  _157
REMARK   66  A    between atoms: _157  and  _158
REMARK   67  A    between atoms: _158  and  _159
REMARK   68  A    between atoms: _162  and  _164
REMARK   69  A    between atoms: _164  and  _165
REMARK   70  A    between atoms: _164  and  _167
REMARK   71  A    between atoms: _167  and  _168
REMARK   72  A    between atoms: _168  and  _169
REMARK   73  A    between atoms: _169  and  _170
REMARK   74  A    between atoms: _170  and  _171
REMARK   75  A    between atoms: _175  and  _177
REMARK   76  A    between atoms: _177  and  _178
REMARK   77  A    between atoms: _177  and  _180
REMARK   78  A    between atoms: _183  and  _185
REMARK   79  A    between atoms: _185  and  _186
REMARK   80  A    between atoms: _185  and  _188
REMARK   81  A    between atoms: _188  and  _189
REMARK   82  A    between atoms: _191  and  _193
REMARK   83  A    between atoms: _193  and  _194
REMARK   84  A    between atoms: _193  and  _196
REMARK   85  A    between atoms: _196  and  _197
REMARK   86  A    between atoms: _199  and  _201
REMARK   87  A    between atoms: _201  and  _202
REMARK   88  A    between atoms: _201  and  _204
REMARK   89  A    between atoms: _204  and  _205
REMARK   90  A    between atoms: _211  and  _213
REMARK   91  A    between atoms: _213  and  _214
REMARK   92  A    between atoms: _213  and  _216
REMARK   93  A    between atoms: _216  and  _217
REMARK   94  A    between atoms: _220  and  _222
REMARK   95  A    between atoms: _222  and  _223
REMARK   96  A    between atoms: _222  and  _225
REMARK   97  A    between atoms: _225  and  _226
REMARK   98  A    between atoms: _229  and  _231
REMARK   99  A    between atoms: _231  and  _232
REMARK  100  A    between atoms: _231  and  _234
REMARK  101  A    between atoms: _234  and  _235
REMARK  102  A    between atoms: _238  and  _240
REMARK  103  A    between atoms: _240  and  _241
REMARK  104  A    between atoms: _240  and  _243
REMARK  105  A    between atoms: _243  and  _244
REMARK  106  A    between atoms: _244  and  _245
REMARK  107  A    between atoms: _247  and  _249
REMARK  108  A    between atoms: _249  and  _250
REMARK  109  A    between atoms: _249  and  _252
REMARK  110  A    between atoms: _252  and  _253
REMARK  111  A    between atoms: _259  and  _261
REMARK  112  A    between atoms: _261  and  _262
REMARK  113  A    between atoms: _261  and  _264
REMARK  114  A    between atoms: _266  and  _268
REMARK  115  A    between atoms: _268  and  _269
REMARK  116  A    between atoms: _272  and  _274
REMARK  117  A    between atoms: _274  and  _275
REMARK  118  A    between atoms: _277  and  _279
REMARK  119  A    between atoms: _279  and  _280
REMARK  120  A    between atoms: _279  and  _282
REMARK  121  A    between atoms: _282  and  _283
REMARK  122  A    between atoms: _283  and  _284
REMARK  123  A    between atoms: _287  and  _289
REMARK  124  A    between atoms: _289  and  _290
REMARK  125  A    between atoms: _289  and  _292
REMARK  126  A    between atoms: _292  and  _293
REMARK  127  A    between atoms: _296  and  _298
REMARK  128  A    between atoms: _298  and  _299
REMARK  129  A    between atoms: _302  and  _304
REMARK  130  A    between atoms: _304  and  _305
REMARK  131  A    between atoms: _304  and  _307
REMARK  132  A    between atoms: _307  and  _308
REMARK  133  A    between atoms: _308  and  _431
REMARK  134  A    between atoms: _309  and  _311
REMARK  135  A    between atoms: _311  and  _312
REMARK  136  A    between atoms: _311  and  _314
REMARK  137  A    between atoms: _314  and  _315
REMARK  138  A    between atoms: _315  and  _316
REMARK  139  A    between atoms: _321  and  _323
REMARK  140  A    between atoms: _323  and  _324
REMARK  141  A    between atoms: _326  and  _328
REMARK  142  A    between atoms: _328  and  _329
REMARK  143  A    between atoms: _328  and  _331
REMARK  144  A    between atoms: _331  and  _332
REMARK  145  A    between atoms: _335  and  _337
REMARK  146  A    between atoms: _337  and  _338
REMARK  147  A    between atoms: _337  and  _340
REMARK  148  A    between atoms: _340  and  _341
REMARK  149  A    between atoms: _343  and  _345
REMARK  150  A    between atoms: _345  and  _346
REMARK  151  A    between atoms: _348  and  _350
REMARK  152  A    between atoms: _350  and  _351
REMARK  153  A    between atoms: _353  and  _355
REMARK  154  A    between atoms: _355  and  _356
REMARK  155  A    between atoms: _355  and  _358
REMARK  156  A    between atoms: _358  and  _359
REMARK  157  A    between atoms: _364  and  _366
REMARK  158  A    between atoms: _366  and  _367
REMARK  159  A    between atoms: _366  and  _369
REMARK  160  A    between atoms: _369  and  _370
REMARK  161  A    between atoms: _373  and  _375
REMARK  162  A    between atoms: _375  and  _376
REMARK  163  A    between atoms: _375  and  _378
REMARK  164  A    between atoms: _381  and  _383
REMARK  165  A    between atoms: _383  and  _384
REMARK  166  A    between atoms: _383  and  _386
REMARK  167  A    between atoms: _386  and  _387
REMARK  168  A    between atoms: _389  and  _391
REMARK  169  A    between atoms: _391  and  _392
REMARK  170  A    between atoms: _391  and  _394
REMARK  171  A    between atoms: _394  and  _395
REMARK  172  A    between atoms: _405  and  _407
REMARK  173  A    between atoms: _407  and  _408
REMARK  174  A    between atoms: _410  and  _412
REMARK  175  A    between atoms: _412  and  _413
REMARK  176  A    between atoms: _412  and  _415
REMARK  177  A    between atoms: _415  and  _416
REMARK  178  A    between atoms: _416  and  _417
REMARK  179  A    between atoms: _420  and  _422
REMARK  180  A    between atoms: _422  and  _423
REMARK  181  A    between atoms: _425  and  _427
REMARK  182  A    between atoms: _427  and  _428
REMARK  183  A    between atoms: _427  and  _430
REMARK  184  A    between atoms: _430  and  _431
REMARK  185  A    between atoms: _432  and  _434
REMARK  186  A    between atoms: _434  and  _435
REMARK  187  A    between atoms: _438  and  _440
REMARK  188  A    between atoms: _440  and  _441
REMARK  189  A    between atoms: _440  and  _443
REMARK  190  A    between atoms: _443  and  _444
REMARK  191  A    between atoms: _444  and  _445
REMARK  192  A    between atoms: _445  and  _446
REMARK  193  A    between atoms: _455  and  _457
REMARK  194  A    between atoms: _457  and  _458
REMARK  195  A    between atoms: _457  and  _460
REMARK  196  A    between atoms: _460  and  _461
REMARK  197  A    between atoms: _461  and  _462
REMARK  198  A    between atoms: _462  and  _463
REMARK  199  A    between atoms: _463  and  _464
REMARK  200  A    between atoms: _468  and  _470
REMARK  201  A    between atoms: _470  and  _471
REMARK  202  A    between atoms: _470  and  _473
REMARK  203  A    between atoms: _473  and  _474
REMARK  204  A    between atoms: _479  and  _480
REMARK  205  A    between atoms: _482  and  _484
REMARK  206  A    between atoms: _484  and  _485
REMARK  207  A    between atoms: _487  and  _489
REMARK  208  A    between atoms: _489  and  _490
REMARK  209  A    between atoms: _489  and  _492
REMARK  210  A    between atoms: _492  and  _493
REMARK  211  A    between atoms: _496  and  _498
REMARK  212  A    between atoms: _498  and  _499
REMARK  213  A    between atoms: _498  and  _501
REMARK  214  A    between atoms: _501  and  _502
REMARK  215  A    between atoms: _507  and  _508
REMARK  216  A    between atoms: _510  and  _512
REMARK  217  A    between atoms: _512  and  _513
REMARK  218  A    between atoms: _512  and  _515
REMARK  219  A    between atoms: _515  and  _516
REMARK                            x       y       z     vdW  Elec       q    Type
REMARK                         _______ _______ _______ _____ _____    ______ ____
ROOT
ATOM      1  O   HOH     1       9.831  62.216  10.376  0.00  0.00    +0.000 OA
ENDROOT
TORSDOF 0
REMARK  Name = ../refined-set-2016/2vwl/2vwl_pocket.pdb
REMARK  219 active torsions:
REMARK  status: ('A' for Active; 'I' for Inactive)
REMARK    1  A    between atoms: _1  and  _5
REMARK    2  A    between atoms: _5  and  _6
REMARK    3  A    between atoms: _5  and  _8
REMARK    4  A    between atoms: _8  and  _9
REMARK    5  A    between atoms: _12  and  _14
REMARK    6  A    between atoms: _14  and  _15
REMARK    7  A    between atoms: _14  and  _17
REMARK    8  A    between atoms: _20  and  _22
REMARK    9  A    between atoms: _22  and  _23
REMARK   10  A    between atoms: _22  and  _25
REMARK   11  A    between atoms: _25  and  _26
REMARK   12  A    between atoms: _31  and  _33
REMARK   13  A    between atoms: _33  and  _34
REMARK   14  A    between atoms: _33  and  _36
REMARK   15  A    between atoms: _36  and  _37
REMARK   16  A    between atoms: _37  and  _38
REMARK   17  A    between atoms: _43  and  _45
REMARK   18  A    between atoms: _45  and  _46
REMARK   19  A    between atoms: _45  and  _48
REMARK   20  A    between atoms: _48  and  _49
REMARK   21  A    between atoms: _52  and  _54
REMARK   22  A    between atoms: _54  and  _55
REMARK   23  A    between atoms: _54  and  _57
REMARK   24  A    between atoms: _57  and  _58
REMARK   25  A    between atoms: _58  and  _59
REMARK   26  A    between atoms: _59  and  _60
REMARK   27  A    between atoms: _60  and  _61
REMARK   28  A    between atoms: _65  and  _67
REMARK   29  A    between atoms: _67  and  _68
REMARK   30  A    between atoms: _67  and  _70
REMARK   31  A    between atoms: _70  and  _71
REMARK   32  A    between atoms: _71  and  _72
REMARK   33  A    between atoms: _75  and  _77
REMARK   34  A    between atoms: _77  and  _78
REMARK   35  A    between atoms: _77  and  _80
REMARK   36  A    between atoms: _80  and  _81
REMARK   37  A    between atoms: _84  and  _86
REMARK   38  A    between atoms: _86  and  _87
REMARK   39  A    between atoms: _86  and  _89
REMARK   40  A    between atoms: _89  and  _90
REMARK   41  A    between atoms: _95  and  _96
REMARK   42  A    between atoms: _98  and  _100
REMARK   43  A    between atoms: _100  and  _101
REMARK   44  A    between atoms: _100  and  _103
REMARK   45  A    between atoms: _103  and  _104
REMARK   46  A    between atoms: _107  and  _109
REMARK   47  A    between atoms: _109  and  _110
REMARK   48  A    between atoms: _109  and  _112
REMARK   49  A    between atoms: _112  and  _113
REMARK   50  A    between atoms: _116  and  _118
REMARK   51  A    between atoms: _118  and  _119
REMARK   52  A    between atoms: _118  and  _121
REMARK   53  A    between atoms: _124  and  _126
REMARK   54  A    between atoms: _126  and  _127
REMARK   55  A    between atoms: _126  and  _129
REMARK   56  A    between atoms: _129  and  _130
REMARK   57  A    between atoms: _130  and  _131
REMARK   58  A    between atoms: _131  and  _132
REMARK   59  A    between atoms: _141  and  _143
REMARK   60  A    between atoms: _143  and  _144
REMARK   61  A    between atoms: _143  and  _146
REMARK   62  A    between atoms: _146  and  _147
REMARK   63  A    between atoms: _152  and  _154
REMARK   64  A    between atoms: _154  and  _155
REMARK   65  A    between atoms: _154  and  _157
REMARK   66  A    between atoms: _157  and  _158
REMARK   67  A    between atoms: _158  and  _159
REMARK   68  A    between atoms: _162  and  _164
REMARK   69  A    between atoms: _164  and  _165
REMARK   70  A    between atoms: _164  and  _167
REMARK   71  A    between atoms: _167  and  _168
REMARK   72  A    between atoms: _168  and  _169
REMARK   73  A    between atoms: _169  and  _170
REMARK   74  A    between atoms: _170  and  _171
REMARK   75  A    between atoms: _175  and  _177
REMARK   76  A    between atoms: _177  and  _178
REMARK   77  A    between atoms: _177  and  _180
REMARK   78  A    between atoms: _183  and  _185
REMARK   79  A    between atoms: _185  and  _186
REMARK   80  A    between atoms: _185  and  _188
REMARK   81  A    between atoms: _188  and  _189
REMARK   82  A    between atoms: _191  and  _193
REMARK   83  A    between atoms: _193  and  _194
REMARK   84  A    between atoms: _193  and  _196
REMARK   85  A    between atoms: _196  and  _197
REMARK   86  A    between atoms: _199  and  _201
REMARK   87  A    between atoms: _201  and  _202
REMARK   88  A    between atoms: _201  and  _204
REMARK   89  A    between atoms: _204  and  _205
REMARK   90  A    between atoms: _211  and  _213
REMARK   91  A    between atoms: _213  and  _214
REMARK   92  A    between atoms: _213  and  _216
REMARK   93  A    between atoms: _216  and  _217
REMARK   94  A    between atoms: _220  and  _222
REMARK   95  A    between atoms: _222  and  _223
REMARK   96  A    between atoms: _222  and  _225
REMARK   97  A    between atoms: _225  and  _226
REMARK   98  A    between atoms: _229  and  _231
REMARK   99  A    between atoms: _231  and  _232
REMARK  100  A    between atoms: _231  and  _234
REMARK  101  A    between atoms: _234  and  _235
REMARK  102  A    between atoms: _238  and  _240
REMARK  103  A    between atoms: _240  and  _241
REMARK  104  A    between atoms: _240  and  _243
REMARK  105  A    between atoms: _243  and  _244
REMARK  106  A    between atoms: _244  and  _245
REMARK  107  A    between atoms: _247  and  _249
REMARK  108  A    between atoms: _249  and  _250
REMARK  109  A    between atoms: _249  and  _252
REMARK  110  A    between atoms: _252  and  _253
REMARK  111  A    between atoms: _259  and  _261
REMARK  112  A    between atoms: _261  and  _262
REMARK  113  A    between atoms: _261  and  _264
REMARK  114  A    between atoms: _266  and  _268
REMARK  115  A    between atoms: _268  and  _269
REMARK  116  A    between atoms: _272  and  _274
REMARK  117  A    between atoms: _274  and  _275
REMARK  118  A    between atoms: _277  and  _279
REMARK  119  A    between atoms: _279  and  _280
REMARK  120  A    between atoms: _279  and  _282
REMARK  121  A    between atoms: _282  and  _283
REMARK  122  A    between atoms: _283  and  _284
REMARK  123  A    between atoms: _287  and  _289
REMARK  124  A    between atoms: _289  and  _290
REMARK  125  A    between atoms: _289  and  _292
REMARK  126  A    between atoms: _292  and  _293
REMARK  127  A    between atoms: _296  and  _298
REMARK  128  A    between atoms: _298  and  _299
REMARK  129  A    between atoms: _302  and  _304
REMARK  130  A    between atoms: _304  and  _305
REMARK  131  A    between atoms: _304  and  _307
REMARK  132  A    between atoms: _307  and  _308
REMARK  133  A    between atoms: _308  and  _431
REMARK  134  A    between atoms: _309  and  _311
REMARK  135  A    between atoms: _311  and  _312
REMARK  136  A    between atoms: _311  and  _314
REMARK  137  A    between atoms: _314  and  _315
REMARK  138  A    between atoms: _315  and  _316
REMARK  139  A    between atoms: _321  and  _323
REMARK  140  A    between atoms: _323  and  _324
REMARK  141  A    between atoms: _326  and  _328
REMARK  142  A    between atoms: _328  and  _329
REMARK  143  A    between atoms: _328  and  _331
REMARK  144  A    between atoms: _331  and  _332
REMARK  145  A    between atoms: _335  and  _337
REMARK  146  A    between atoms: _337  and  _338
REMARK  147  A    between atoms: _337  and  _340
REMARK  148  A    between atoms: _340  and  _341
REMARK  149  A    between atoms: _343  and  _345
REMARK  150  A    between atoms: _345  and  _346
REMARK  151  A    between atoms: _348  and  _350
REMARK  152  A    between atoms: _350  and  _351
REMARK  153  A    between atoms: _353  and  _355
REMARK  154  A    between atoms: _355  and  _356
REMARK  155  A    between atoms: _355  and  _358
REMARK  156  A    between atoms: _358  and  _359
REMARK  157  A    between atoms: _364  and  _366
REMARK  158  A    between atoms: _366  and  _367
REMARK  159  A    between atoms: _366  and  _369
REMARK  160  A    between atoms: _369  and  _370
REMARK  161  A    between atoms: _373  and  _375
REMARK  162  A    between atoms: _375  and  _376
REMARK  163  A    between atoms: _375  and  _378
REMARK  164  A    between atoms: _381  and  _383
REMARK  165  A    between atoms: _383  and  _384
REMARK  166  A    between atoms: _383  and  _386
REMARK  167  A    between atoms: _386  and  _387
REMARK  168  A    between atoms: _389  and  _391
REMARK  169  A    between atoms: _391  and  _392
REMARK  170  A    between atoms: _391  and  _394
REMARK  171  A    between atoms: _394  and  _395
REMARK  172  A    between atoms: _405  and  _407
REMARK  173  A    between atoms: _407  and  _408
REMARK  174  A    between atoms: _410  and  _412
REMARK  175  A    between atoms: _412  and  _413
REMARK  176  A    between atoms: _412  and  _415
REMARK  177  A    between atoms: _415  and  _416
REMARK  178  A    between atoms: _416  and  _417
REMARK  179  A    between atoms: _420  and  _422
REMARK  180  A    between atoms: _422  and  _423
REMARK  181  A    between atoms: _425  and  _427
REMARK  182  A    between atoms: _427  and  _428
REMARK  183  A    between atoms: _427  and  _430
REMARK  184  A    between atoms: _430  and  _431
REMARK  185  A    between atoms: _432  and  _434
REMARK  186  A    between atoms: _434  and  _435
REMARK  187  A    between atoms: _438  and  _440
REMARK  188  A    between atoms: _440  and  _441
REMARK  189  A    between atoms: _440  and  _443
REMARK  190  A    between atoms: _443  and  _444
REMARK  191  A    between atoms: _444  and  _445
REMARK  192  A    between atoms: _445  and  _446
REMARK  193  A    between atoms: _455  and  _457
REMARK  194  A    between atoms: _457  and  _458
REMARK  195  A    between atoms: _457  and  _460
REMARK  196  A    between atoms: _460  and  _461
REMARK  197  A    between atoms: _461  and  _462
REMARK  198  A    between atoms: _462  and  _463
REMARK  199  A    between atoms: _463  and  _464
REMARK  200  A    between atoms: _468  and  _470
REMARK  201  A    between atoms: _470  and  _471
REMARK  202  A    between atoms: _470  and  _473
REMARK  203  A    between atoms: _473  and  _474
REMARK  204  A    between atoms: _479  and  _480
REMARK  205  A    between atoms: _482  and  _484
REMARK  206  A    between atoms: _484  and  _485
REMARK  207  A    between atoms: _487  and  _489
REMARK  208  A    between atoms: _489  and  _490
REMARK  209  A    between atoms: _489  and  _492
REMARK  210  A    between atoms: _492  and  _493
REMARK  211  A    between atoms: _496  and  _498
REMARK  212  A    between atoms: _498  and  _499
REMARK  213  A    between atoms: _498  and  _501
REMARK  214  A    between atoms: _501  and  _502
REMARK  215  A    between atoms: _507  and  _508
REMARK  216  A    between atoms: _510  and  _512
REMARK  217  A    between atoms: _512  and  _513
REMARK  218  A    between atoms: _512  and  _515
REMARK  219  A    between atoms: _515  and  _516
REMARK                            x       y       z     vdW  Elec       q    Type
REMARK                         _______ _______ _______ _____ _____    ______ ____
ROOT
ATOM      1  O   HOH     1      18.122  63.577  11.137  0.00  0.00    +0.000 OA
ENDROOT
TORSDOF 0
REMARK  Name = ../refined-set-2016/2vwl/2vwl_pocket.pdb
REMARK  219 active torsions:
REMARK  status: ('A' for Active; 'I' for Inactive)
REMARK    1  A    between atoms: _1  and  _5
REMARK    2  A    between atoms: _5  and  _6
REMARK    3  A    between atoms: _5  and  _8
REMARK    4  A    between atoms: _8  and  _9
REMARK    5  A    between atoms: _12  and  _14
REMARK    6  A    between atoms: _14  and  _15
REMARK    7  A    between atoms: _14  and  _17
REMARK    8  A    between atoms: _20  and  _22
REMARK    9  A    between atoms: _22  and  _23
REMARK   10  A    between atoms: _22  and  _25
REMARK   11  A    between atoms: _25  and  _26
REMARK   12  A    between atoms: _31  and  _33
REMARK   13  A    between atoms: _33  and  _34
REMARK   14  A    between atoms: _33  and  _36
REMARK   15  A    between atoms: _36  and  _37
REMARK   16  A    between atoms: _37  and  _38
REMARK   17  A    between atoms: _43  and  _45
REMARK   18  A    between atoms: _45  and  _46
REMARK   19  A    between atoms: _45  and  _48
REMARK   20  A    between atoms: _48  and  _49
REMARK   21  A    between atoms: _52  and  _54
REMARK   22  A    between atoms: _54  and  _55
REMARK   23  A    between atoms: _54  and  _57
REMARK   24  A    between atoms: _57  and  _58
REMARK   25  A    between atoms: _58  and  _59
REMARK   26  A    between atoms: _59  and  _60
REMARK   27  A    between atoms: _60  and  _61
REMARK   28  A    between atoms: _65  and  _67
REMARK   29  A    between atoms: _67  and  _68
REMARK   30  A    between atoms: _67  and  _70
REMARK   31  A    between atoms: _70  and  _71
REMARK   32  A    between atoms: _71  and  _72
REMARK   33  A    between atoms: _75  and  _77
REMARK   34  A    between atoms: _77  and  _78
REMARK   35  A    between atoms: _77  and  _80
REMARK   36  A    between atoms: _80  and  _81
REMARK   37  A    between atoms: _84  and  _86
REMARK   38  A    between atoms: _86  and  _87
REMARK   39  A    between atoms: _86  and  _89
REMARK   40  A    between atoms: _89  and  _90
REMARK   41  A    between atoms: _95  and  _96
REMARK   42  A    between atoms: _98  and  _100
REMARK   43  A    between atoms: _100  and  _101
REMARK   44  A    between atoms: _100  and  _103
REMARK   45  A    between atoms: _103  and  _104
REMARK   46  A    between atoms: _107  and  _109
REMARK   47  A    between atoms: _109  and  _110
REMARK   48  A    between atoms: _109  and  _112
REMARK   49  A    between atoms: _112  and  _113
REMARK   50  A    between atoms: _116  and  _118
REMARK   51  A    between atoms: _118  and  _119
REMARK   52  A    between atoms: _118  and  _121
REMARK   53  A    between atoms: _124  and  _126
REMARK   54  A    between atoms: _126  and  _127
REMARK   55  A    between atoms: _126  and  _129
REMARK   56  A    between atoms: _129  and  _130
REMARK   57  A    between atoms: _130  and  _131
REMARK   58  A    between atoms: _131  and  _132
REMARK   59  A    between atoms: _141  and  _143
REMARK   60  A    between atoms: _143  and  _144
REMARK   61  A    between atoms: _143  and  _146
REMARK   62  A    between atoms: _146  and  _147
REMARK   63  A    between atoms: _152  and  _154
REMARK   64  A    between atoms: _154  and  _155
REMARK   65  A    between atoms: _154  and  _157
REMARK   66  A    between atoms: _157  and  _158
REMARK   67  A    between atoms: _158  and  _159
REMARK   68  A    between atoms: _162  and  _164
REMARK   69  A    between atoms: _164  and  _165
REMARK   70  A    between atoms: _164  and  _167
REMARK   71  A    between atoms: _167  and  _168
REMARK   72  A    between atoms: _168  and  _169
REMARK   73  A    between atoms: _169  and  _170
REMARK   74  A    between atoms: _170  and  _171
REMARK   75  A    between atoms: _175  and  _177
REMARK   76  A    between atoms: _177  and  _178
REMARK   77  A    between atoms: _177  and  _180
REMARK   78  A    between atoms: _183  and  _185
REMARK   79  A    between atoms: _185  and  _186
REMARK   80  A    between atoms: _185  and  _188
REMARK   81  A    between atoms: _188  and  _189
REMARK   82  A    between atoms: _191  and  _193
REMARK   83  A    between atoms: _193  and  _194
REMARK   84  A    between atoms: _193  and  _196
REMARK   85  A    between atoms: _196  and  _197
REMARK   86  A    between atoms: _199  and  _201
REMARK   87  A    between atoms: _201  and  _202
REMARK   88  A    between atoms: _201  and  _204
REMARK   89  A    between atoms: _204  and  _205
REMARK   90  A    between atoms: _211  and  _213
REMARK   91  A    between atoms: _213  and  _214
REMARK   92  A    between atoms: _213  and  _216
REMARK   93  A    between atoms: _216  and  _217
REMARK   94  A    between atoms: _220  and  _222
REMARK   95  A    between atoms: _222  and  _223
REMARK   96  A    between atoms: _222  and  _225
REMARK   97  A    between atoms: _225  and  _226
REMARK   98  A    between atoms: _229  and  _231
REMARK   99  A    between atoms: _231  and  _232
REMARK  100  A    between atoms: _231  and  _234
REMARK  101  A    between atoms: _234  and  _235
REMARK  102  A    between atoms: _238  and  _240
REMARK  103  A    between atoms: _240  and  _241
REMARK  104  A    between atoms: _240  and  _243
REMARK  105  A    between atoms: _243  and  _244
REMARK  106  A    between atoms: _244  and  _245
REMARK  107  A    between atoms: _247  and  _249
REMARK  108  A    between atoms: _249  and  _250
REMARK  109  A    between atoms: _249  and  _252
REMARK  110  A    between atoms: _252  and  _253
REMARK  111  A    between atoms: _259  and  _261
REMARK  112  A    between atoms: _261  and  _262
REMARK  113  A    between atoms: _261  and  _264
REMARK  114  A    between atoms: _266  and  _268
REMARK  115  A    between atoms: _268  and  _269
REMARK  116  A    between atoms: _272  and  _274
REMARK  117  A    between atoms: _274  and  _275
REMARK  118  A    between atoms: _277  and  _279
REMARK  119  A    between atoms: _279  and  _280
REMARK  120  A    between atoms: _279  and  _282
REMARK  121  A    between atoms: _282  and  _283
REMARK  122  A    between atoms: _283  and  _284
REMARK  123  A    between atoms: _287  and  _289
REMARK  124  A    between atoms: _289  and  _290
REMARK  125  A    between atoms: _289  and  _292
REMARK  126  A    between atoms: _292  and  _293
REMARK  127  A    between atoms: _296  and  _298
REMARK  128  A    between atoms: _298  and  _299
REMARK  129  A    between atoms: _302  and  _304
REMARK  130  A    between atoms: _304  and  _305
REMARK  131  A    between atoms: _304  and  _307
REMARK  132  A    between atoms: _307  and  _308
REMARK  133  A    between atoms: _308  and  _431
REMARK  134  A    between atoms: _309  and  _311
REMARK  135  A    between atoms: _311  and  _312
REMARK  136  A    between atoms: _311  and  _314
REMARK  137  A    between atoms: _314  and  _315
REMARK  138  A    between atoms: _315  and  _316
REMARK  139  A    between atoms: _321  and  _323
REMARK  140  A    between atoms: _323  and  _324
REMARK  141  A    between atoms: _326  and  _328
REMARK  142  A    between atoms: _328  and  _329
REMARK  143  A    between atoms: _328  and  _331
REMARK  144  A    between atoms: _331  and  _332
REMARK  145  A    between atoms: _335  and  _337
REMARK  146  A    between atoms: _337  and  _338
REMARK  147  A    between atoms: _337  and  _340
REMARK  148  A    between atoms: _340  and  _341
REMARK  149  A    between atoms: _343  and  _345
REMARK  150  A    between atoms: _345  and  _346
REMARK  151  A    between atoms: _348  and  _350
REMARK  152  A    between atoms: _350  and  _351
REMARK  153  A    between atoms: _353  and  _355
REMARK  154  A    between atoms: _355  and  _356
REMARK  155  A    between atoms: _355  and  _358
REMARK  156  A    between atoms: _358  and  _359
REMARK  157  A    between atoms: _364  and  _366
REMARK  158  A    between atoms: _366  and  _367
REMARK  159  A    between atoms: _366  and  _369
REMARK  160  A    between atoms: _369  and  _370
REMARK  161  A    between atoms: _373  and  _375
REMARK  162  A    between atoms: _375  and  _376
REMARK  163  A    between atoms: _375  and  _378
REMARK  164  A    between atoms: _381  and  _383
REMARK  165  A    between atoms: _383  and  _384
REMARK  166  A    between atoms: _383  and  _386
REMARK  167  A    between atoms: _386  and  _387
REMARK  168  A    between atoms: _389  and  _391
REMARK  169  A    between atoms: _391  and  _392
REMARK  170  A    between atoms: _391  and  _394
REMARK  171  A    between atoms: _394  and  _395
REMARK  172  A    between atoms: _405  and  _407
REMARK  173  A    between atoms: _407  and  _408
REMARK  174  A    between atoms: _410  and  _412
REMARK  175  A    between atoms: _412  and  _413
REMARK  176  A    between atoms: _412  and  _415
REMARK  177  A    between atoms: _415  and  _416
REMARK  178  A    between atoms: _416  and  _417
REMARK  179  A    between atoms: _420  and  _422
REMARK  180  A    between atoms: _422  and  _423
REMARK  181  A    between atoms: _425  and  _427
REMARK  182  A    between atoms: _427  and  _428
REMARK  183  A    between atoms: _427  and  _430
REMARK  184  A    between atoms: _430  and  _431
REMARK  185  A    between atoms: _432  and  _434
REMARK  186  A    between atoms: _434  and  _435
REMARK  187  A    between atoms: _438  and  _440
REMARK  188  A    between atoms: _440  and  _441
REMARK  189  A    between atoms: _440  and  _443
REMARK  190  A    between atoms: _443  and  _444
REMARK  191  A    between atoms: _444  and  _445
REMARK  192  A    between atoms: _445  and  _446
REMARK  193  A    between atoms: _455  and  _457
REMARK  194  A    between atoms: _457  and  _458
REMARK  195  A    between atoms: _457  and  _460
REMARK  196  A    between atoms: _460  and  _461
REMARK  197  A    between atoms: _461  and  _462
REMARK  198  A    between atoms: _462  and  _463
REMARK  199  A    between atoms: _463  and  _464
REMARK  200  A    between atoms: _468  and  _470
REMARK  201  A    between atoms: _470  and  _471
REMARK  202  A    between atoms: _470  and  _473
REMARK  203  A    between atoms: _473  and  _474
REMARK  204  A    between atoms: _479  and  _480
REMARK  205  A    between atoms: _482  and  _484
REMARK  206  A    between atoms: _484  and  _485
REMARK  207  A    between atoms: _487  and  _489
REMARK  208  A    between atoms: _489  and  _490
REMARK  209  A    between atoms: _489  and  _492
REMARK  210  A    between atoms: _492  and  _493
REMARK  211  A    between atoms: _496  and  _498
REMARK  212  A    between atoms: _498  and  _499
REMARK  213  A    between atoms: _498  and  _501
REMARK  214  A    between atoms: _501  and  _502
REMARK  215  A    between atoms: _507  and  _508
REMARK  216  A    between atoms: _510  and  _512
REMARK  217  A    between atoms: _512  and  _513
REMARK  218  A    between atoms: _512  and  _515
REMARK  219  A    between atoms: _515  and  _516
REMARK                            x       y       z     vdW  Elec       q    Type
REMARK                         _______ _______ _______ _____ _____    ______ ____
ROOT
ATOM      1  O   HOH     1       6.224  70.432   0.635  0.00  0.00    +0.000 OA
ENDROOT
TORSDOF 0
REMARK  Name = ../refined-set-2016/2vwl/2vwl_pocket.pdb
REMARK  219 active torsions:
REMARK  status: ('A' for Active; 'I' for Inactive)
REMARK    1  A    between atoms: _1  and  _5
REMARK    2  A    between atoms: _5  and  _6
REMARK    3  A    between atoms: _5  and  _8
REMARK    4  A    between atoms: _8  and  _9
REMARK    5  A    between atoms: _12  and  _14
REMARK    6  A    between atoms: _14  and  _15
REMARK    7  A    between atoms: _14  and  _17
REMARK    8  A    between atoms: _20  and  _22
REMARK    9  A    between atoms: _22  and  _23
REMARK   10  A    between atoms: _22  and  _25
REMARK   11  A    between atoms: _25  and  _26
REMARK   12  A    between atoms: _31  and  _33
REMARK   13  A    between atoms: _33  and  _34
REMARK   14  A    between atoms: _33  and  _36
REMARK   15  A    between atoms: _36  and  _37
REMARK   16  A    between atoms: _37  and  _38
REMARK   17  A    between atoms: _43  and  _45
REMARK   18  A    between atoms: _45  and  _46
REMARK   19  A    between atoms: _45  and  _48
REMARK   20  A    between atoms: _48  and  _49
REMARK   21  A    between atoms: _52  and  _54
REMARK   22  A    between atoms: _54  and  _55
REMARK   23  A    between atoms: _54  and  _57
REMARK   24  A    between atoms: _57  and  _58
REMARK   25  A    between atoms: _58  and  _59
REMARK   26  A    between atoms: _59  and  _60
REMARK   27  A    between atoms: _60  and  _61
REMARK   28  A    between atoms: _65  and  _67
REMARK   29  A    between atoms: _67  and  _68
REMARK   30  A    between atoms: _67  and  _70
REMARK   31  A    between atoms: _70  and  _71
REMARK   32  A    between atoms: _71  and  _72
REMARK   33  A    between atoms: _75  and  _77
REMARK   34  A    between atoms: _77  and  _78
REMARK   35  A    between atoms: _77  and  _80
REMARK   36  A    between atoms: _80  and  _81
REMARK   37  A    between atoms: _84  and  _86
REMARK   38  A    between atoms: _86  and  _87
REMARK   39  A    between atoms: _86  and  _89
REMARK   40  A    between atoms: _89  and  _90
REMARK   41  A    between atoms: _95  and  _96
REMARK   42  A    between atoms: _98  and  _100
REMARK   43  A    between atoms: _100  and  _101
REMARK   44  A    between atoms: _100  and  _103
REMARK   45  A    between atoms: _103  and  _104
REMARK   46  A    between atoms: _107  and  _109
REMARK   47  A    between atoms: _109  and  _110
REMARK   48  A    between atoms: _109  and  _112
REMARK   49  A    between atoms: _112  and  _113
REMARK   50  A    between atoms: _116  and  _118
REMARK   51  A    between atoms: _118  and  _119
REMARK   52  A    between atoms: _118  and  _121
REMARK   53  A    between atoms: _124  and  _126
REMARK   54  A    between atoms: _126  and  _127
REMARK   55  A    between atoms: _126  and  _129
REMARK   56  A    between atoms: _129  and  _130
REMARK   57  A    between atoms: _130  and  _131
REMARK   58  A    between atoms: _131  and  _132
REMARK   59  A    between atoms: _141  and  _143
REMARK   60  A    between atoms: _143  and  _144
REMARK   61  A    between atoms: _143  and  _146
REMARK   62  A    between atoms: _146  and  _147
REMARK   63  A    between atoms: _152  and  _154
REMARK   64  A    between atoms: _154  and  _155
REMARK   65  A    between atoms: _154  and  _157
REMARK   66  A    between atoms: _157  and  _158
REMARK   67  A    between atoms: _158  and  _159
REMARK   68  A    between atoms: _162  and  _164
REMARK   69  A    between atoms: _164  and  _165
REMARK   70  A    between atoms: _164  and  _167
REMARK   71  A    between atoms: _167  and  _168
REMARK   72  A    between atoms: _168  and  _169
REMARK   73  A    between atoms: _169  and  _170
REMARK   74  A    between atoms: _170  and  _171
REMARK   75  A    between atoms: _175  and  _177
REMARK   76  A    between atoms: _177  and  _178
REMARK   77  A    between atoms: _177  and  _180
REMARK   78  A    between atoms: _183  and  _185
REMARK   79  A    between atoms: _185  and  _186
REMARK   80  A    between atoms: _185  and  _188
REMARK   81  A    between atoms: _188  and  _189
REMARK   82  A    between atoms: _191  and  _193
REMARK   83  A    between atoms: _193  and  _194
REMARK   84  A    between atoms: _193  and  _196
REMARK   85  A    between atoms: _196  and  _197
REMARK   86  A    between atoms: _199  and  _201
REMARK   87  A    between atoms: _201  and  _202
REMARK   88  A    between atoms: _201  and  _204
REMARK   89  A    between atoms: _204  and  _205
REMARK   90  A    between atoms: _211  and  _213
REMARK   91  A    between atoms: _213  and  _214
REMARK   92  A    between atoms: _213  and  _216
REMARK   93  A    between atoms: _216  and  _217
REMARK   94  A    between atoms: _220  and  _222
REMARK   95  A    between atoms: _222  and  _223
REMARK   96  A    between atoms: _222  and  _225
REMARK   97  A    between atoms: _225  and  _226
REMARK   98  A    between atoms: _229  and  _231
REMARK   99  A    between atoms: _231  and  _232
REMARK  100  A    between atoms: _231  and  _234
REMARK  101  A    between atoms: _234  and  _235
REMARK  102  A    between atoms: _238  and  _240
REMARK  103  A    between atoms: _240  and  _241
REMARK  104  A    between atoms: _240  and  _243
REMARK  105  A    between atoms: _243  and  _244
REMARK  106  A    between atoms: _244  and  _245
REMARK  107  A    between atoms: _247  and  _249
REMARK  108  A    between atoms: _249  and  _250
REMARK  109  A    between atoms: _249  and  _252
REMARK  110  A    between atoms: _252  and  _253
REMARK  111  A    between atoms: _259  and  _261
REMARK  112  A    between atoms: _261  and  _262
REMARK  113  A    between atoms: _261  and  _264
REMARK  114  A    between atoms: _266  and  _268
REMARK  115  A    between atoms: _268  and  _269
REMARK  116  A    between atoms: _272  and  _274
REMARK  117  A    between atoms: _274  and  _275
REMARK  118  A    between atoms: _277  and  _279
REMARK  119  A    between atoms: _279  and  _280
REMARK  120  A    between atoms: _279  and  _282
REMARK  121  A    between atoms: _282  and  _283
REMARK  122  A    between atoms: _283  and  _284
REMARK  123  A    between atoms: _287  and  _289
REMARK  124  A    between atoms: _289  and  _290
REMARK  125  A    between atoms: _289  and  _292
REMARK  126  A    between atoms: _292  and  _293
REMARK  127  A    between atoms: _296  and  _298
REMARK  128  A    between atoms: _298  and  _299
REMARK  129  A    between atoms: _302  and  _304
REMARK  130  A    between atoms: _304  and  _305
REMARK  131  A    between atoms: _304  and  _307
REMARK  132  A    between atoms: _307  and  _308
REMARK  133  A    between atoms: _308  and  _431
REMARK  134  A    between atoms: _309  and  _311
REMARK  135  A    between atoms: _311  and  _312
REMARK  136  A    between atoms: _311  and  _314
REMARK  137  A    between atoms: _314  and  _315
REMARK  138  A    between atoms: _315  and  _316
REMARK  139  A    between atoms: _321  and  _323
REMARK  140  A    between atoms: _323  and  _324
REMARK  141  A    between atoms: _326  and  _328
REMARK  142  A    between atoms: _328  and  _329
REMARK  143  A    between atoms: _328  and  _331
REMARK  144  A    between atoms: _331  and  _332
REMARK  145  A    between atoms: _335  and  _337
REMARK  146  A    between atoms: _337  and  _338
REMARK  147  A    between atoms: _337  and  _340
REMARK  148  A    between atoms: _340  and  _341
REMARK  149  A    between atoms: _343  and  _345
REMARK  150  A    between atoms: _345  and  _346
REMARK  151  A    between atoms: _348  and  _350
REMARK  152  A    between atoms: _350  and  _351
REMARK  153  A    between atoms: _353  and  _355
REMARK  154  A    between atoms: _355  and  _356
REMARK  155  A    between atoms: _355  and  _358
REMARK  156  A    between atoms: _358  and  _359
REMARK  157  A    between atoms: _364  and  _366
REMARK  158  A    between atoms: _366  and  _367
REMARK  159  A    between atoms: _366  and  _369
REMARK  160  A    between atoms: _369  and  _370
REMARK  161  A    between atoms: _373  and  _375
REMARK  162  A    between atoms: _375  and  _376
REMARK  163  A    between atoms: _375  and  _378
REMARK  164  A    between atoms: _381  and  _383
REMARK  165  A    between atoms: _383  and  _384
REMARK  166  A    between atoms: _383  and  _386
REMARK  167  A    between atoms: _386  and  _387
REMARK  168  A    between atoms: _389  and  _391
REMARK  169  A    between atoms: _391  and  _392
REMARK  170  A    between atoms: _391  and  _394
REMARK  171  A    between atoms: _394  and  _395
REMARK  172  A    between atoms: _405  and  _407
REMARK  173  A    between atoms: _407  and  _408
REMARK  174  A    between atoms: _410  and  _412
REMARK  175  A    between atoms: _412  and  _413
REMARK  176  A    between atoms: _412  and  _415
REMARK  177  A    between atoms: _415  and  _416
REMARK  178  A    between atoms: _416  and  _417
REMARK  179  A    between atoms: _420  and  _422
REMARK  180  A    between atoms: _422  and  _423
REMARK  181  A    between atoms: _425  and  _427
REMARK  182  A    between atoms: _427  and  _428
REMARK  183  A    between atoms: _427  and  _430
REMARK  184  A    between atoms: _430  and  _431
REMARK  185  A    between atoms: _432  and  _434
REMARK  186  A    between atoms: _434  and  _435
REMARK  187  A    between atoms: _438  and  _440
REMARK  188  A    between atoms: _440  and  _441
REMARK  189  A    between atoms: _440  and  _443
REMARK  190  A    between atoms: _443  and  _444
REMARK  191  A    between atoms: _444  and  _445
REMARK  192  A    between atoms: _445  and  _446
REMARK  193  A    between atoms: _455  and  _457
REMARK  194  A    between atoms: _457  and  _458
REMARK  195  A    between atoms: _457  and  _460
REMARK  196  A    between atoms: _460  and  _461
REMARK  197  A    between atoms: _461  and  _462
REMARK  198  A    between atoms: _462  and  _463
REMARK  199  A    between atoms: _463  and  _464
REMARK  200  A    between atoms: _468  and  _470
REMARK  201  A    between atoms: _470  and  _471
REMARK  202  A    between atoms: _470  and  _473
REMARK  203  A    between atoms: _473  and  _474
REMARK  204  A    between atoms: _479  and  _480
REMARK  205  A    between atoms: _482  and  _484
REMARK  206  A    between atoms: _484  and  _485
REMARK  207  A    between atoms: _487  and  _489
REMARK  208  A    between atoms: _489  and  _490
REMARK  209  A    between atoms: _489  and  _492
REMARK  210  A    between atoms: _492  and  _493
REMARK  211  A    between atoms: _496  and  _498
REMARK  212  A    between atoms: _498  and  _499
REMARK  213  A    between atoms: _498  and  _501
REMARK  214  A    between atoms: _501  and  _502
REMARK  215  A    between atoms: _507  and  _508
REMARK  216  A    between atoms: _510  and  _512
REMARK  217  A    between atoms: _512  and  _513
REMARK  218  A    between atoms: _512  and  _515
REMARK  219  A    between atoms: _515  and  _516
REMARK                            x       y       z     vdW  Elec       q    Type
REMARK                         _______ _______ _______ _____ _____    ______ ____
ROOT
ATOM      1  O   HOH     1       7.170  65.564  -1.277  0.00  0.00    +0.000 OA
ENDROOT
TORSDOF 0
REMARK  Name = ../refined-set-2016/2vwl/2vwl_pocket.pdb
REMARK  219 active torsions:
REMARK  status: ('A' for Active; 'I' for Inactive)
REMARK    1  A    between atoms: _1  and  _5
REMARK    2  A    between atoms: _5  and  _6
REMARK    3  A    between atoms: _5  and  _8
REMARK    4  A    between atoms: _8  and  _9
REMARK    5  A    between atoms: _12  and  _14
REMARK    6  A    between atoms: _14  and  _15
REMARK    7  A    between atoms: _14  and  _17
REMARK    8  A    between atoms: _20  and  _22
REMARK    9  A    between atoms: _22  and  _23
REMARK   10  A    between atoms: _22  and  _25
REMARK   11  A    between atoms: _25  and  _26
REMARK   12  A    between atoms: _31  and  _33
REMARK   13  A    between atoms: _33  and  _34
REMARK   14  A    between atoms: _33  and  _36
REMARK   15  A    between atoms: _36  and  _37
REMARK   16  A    between atoms: _37  and  _38
REMARK   17  A    between atoms: _43  and  _45
REMARK   18  A    between atoms: _45  and  _46
REMARK   19  A    between atoms: _45  and  _48
REMARK   20  A    between atoms: _48  and  _49
REMARK   21  A    between atoms: _52  and  _54
REMARK   22  A    between atoms: _54  and  _55
REMARK   23  A    between atoms: _54  and  _57
REMARK   24  A    between atoms: _57  and  _58
REMARK   25  A    between atoms: _58  and  _59
REMARK   26  A    between atoms: _59  and  _60
REMARK   27  A    between atoms: _60  and  _61
REMARK   28  A    between atoms: _65  and  _67
REMARK   29  A    between atoms: _67  and  _68
REMARK   30  A    between atoms: _67  and  _70
REMARK   31  A    between atoms: _70  and  _71
REMARK   32  A    between atoms: _71  and  _72
REMARK   33  A    between atoms: _75  and  _77
REMARK   34  A    between atoms: _77  and  _78
REMARK   35  A    between atoms: _77  and  _80
REMARK   36  A    between atoms: _80  and  _81
REMARK   37  A    between atoms: _84  and  _86
REMARK   38  A    between atoms: _86  and  _87
REMARK   39  A    between atoms: _86  and  _89
REMARK   40  A    between atoms: _89  and  _90
REMARK   41  A    between atoms: _95  and  _96
REMARK   42  A    between atoms: _98  and  _100
REMARK   43  A    between atoms: _100  and  _101
REMARK   44  A    between atoms: _100  and  _103
REMARK   45  A    between atoms: _103  and  _104
REMARK   46  A    between atoms: _107  and  _109
REMARK   47  A    between atoms: _109  and  _110
REMARK   48  A    between atoms: _109  and  _112
REMARK   49  A    between atoms: _112  and  _113
REMARK   50  A    between atoms: _116  and  _118
REMARK   51  A    between atoms: _118  and  _119
REMARK   52  A    between atoms: _118  and  _121
REMARK   53  A    between atoms: _124  and  _126
REMARK   54  A    between atoms: _126  and  _127
REMARK   55  A    between atoms: _126  and  _129
REMARK   56  A    between atoms: _129  and  _130
REMARK   57  A    between atoms: _130  and  _131
REMARK   58  A    between atoms: _131  and  _132
REMARK   59  A    between atoms: _141  and  _143
REMARK   60  A    between atoms: _143  and  _144
REMARK   61  A    between atoms: _143  and  _146
REMARK   62  A    between atoms: _146  and  _147
REMARK   63  A    between atoms: _152  and  _154
REMARK   64  A    between atoms: _154  and  _155
REMARK   65  A    between atoms: _154  and  _157
REMARK   66  A    between atoms: _157  and  _158
REMARK   67  A    between atoms: _158  and  _159
REMARK   68  A    between atoms: _162  and  _164
REMARK   69  A    between atoms: _164  and  _165
REMARK   70  A    between atoms: _164  and  _167
REMARK   71  A    between atoms: _167  and  _168
REMARK   72  A    between atoms: _168  and  _169
REMARK   73  A    between atoms: _169  and  _170
REMARK   74  A    between atoms: _170  and  _171
REMARK   75  A    between atoms: _175  and  _177
REMARK   76  A    between atoms: _177  and  _178
REMARK   77  A    between atoms: _177  and  _180
REMARK   78  A    between atoms: _183  and  _185
REMARK   79  A    between atoms: _185  and  _186
REMARK   80  A    between atoms: _185  and  _188
REMARK   81  A    between atoms: _188  and  _189
REMARK   82  A    between atoms: _191  and  _193
REMARK   83  A    between atoms: _193  and  _194
REMARK   84  A    between atoms: _193  and  _196
REMARK   85  A    between atoms: _196  and  _197
REMARK   86  A    between atoms: _199  and  _201
REMARK   87  A    between atoms: _201  and  _202
REMARK   88  A    between atoms: _201  and  _204
REMARK   89  A    between atoms: _204  and  _205
REMARK   90  A    between atoms: _211  and  _213
REMARK   91  A    between atoms: _213  and  _214
REMARK   92  A    between atoms: _213  and  _216
REMARK   93  A    between atoms: _216  and  _217
REMARK   94  A    between atoms: _220  and  _222
REMARK   95  A    between atoms: _222  and  _223
REMARK   96  A    between atoms: _222  and  _225
REMARK   97  A    between atoms: _225  and  _226
REMARK   98  A    between atoms: _229  and  _231
REMARK   99  A    between atoms: _231  and  _232
REMARK  100  A    between atoms: _231  and  _234
REMARK  101  A    between atoms: _234  and  _235
REMARK  102  A    between atoms: _238  and  _240
REMARK  103  A    between atoms: _240  and  _241
REMARK  104  A    between atoms: _240  and  _243
REMARK  105  A    between atoms: _243  and  _244
REMARK  106  A    between atoms: _244  and  _245
REMARK  107  A    between atoms: _247  and  _249
REMARK  108  A    between atoms: _249  and  _250
REMARK  109  A    between atoms: _249  and  _252
REMARK  110  A    between atoms: _252  and  _253
REMARK  111  A    between atoms: _259  and  _261
REMARK  112  A    between atoms: _261  and  _262
REMARK  113  A    between atoms: _261  and  _264
REMARK  114  A    between atoms: _266  and  _268
REMARK  115  A    between atoms: _268  and  _269
REMARK  116  A    between atoms: _272  and  _274
REMARK  117  A    between atoms: _274  and  _275
REMARK  118  A    between atoms: _277  and  _279
REMARK  119  A    between atoms: _279  and  _280
REMARK  120  A    between atoms: _279  and  _282
REMARK  121  A    between atoms: _282  and  _283
REMARK  122  A    between atoms: _283  and  _284
REMARK  123  A    between atoms: _287  and  _289
REMARK  124  A    between atoms: _289  and  _290
REMARK  125  A    between atoms: _289  and  _292
REMARK  126  A    between atoms: _292  and  _293
REMARK  127  A    between atoms: _296  and  _298
REMARK  128  A    between atoms: _298  and  _299
REMARK  129  A    between atoms: _302  and  _304
REMARK  130  A    between atoms: _304  and  _305
REMARK  131  A    between atoms: _304  and  _307
REMARK  132  A    between atoms: _307  and  _308
REMARK  133  A    between atoms: _308  and  _431
REMARK  134  A    between atoms: _309  and  _311
REMARK  135  A    between atoms: _311  and  _312
REMARK  136  A    between atoms: _311  and  _314
REMARK  137  A    between atoms: _314  and  _315
REMARK  138  A    between atoms: _315  and  _316
REMARK  139  A    between atoms: _321  and  _323
REMARK  140  A    between atoms: _323  and  _324
REMARK  141  A    between atoms: _326  and  _328
REMARK  142  A    between atoms: _328  and  _329
REMARK  143  A    between atoms: _328  and  _331
REMARK  144  A    between atoms: _331  and  _332
REMARK  145  A    between atoms: _335  and  _337
REMARK  146  A    between atoms: _337  and  _338
REMARK  147  A    between atoms: _337  and  _340
REMARK  148  A    between atoms: _340  and  _341
REMARK  149  A    between atoms: _343  and  _345
REMARK  150  A    between atoms: _345  and  _346
REMARK  151  A    between atoms: _348  and  _350
REMARK  152  A    between atoms: _350  and  _351
REMARK  153  A    between atoms: _353  and  _355
REMARK  154  A    between atoms: _355  and  _356
REMARK  155  A    between atoms: _355  and  _358
REMARK  156  A    between atoms: _358  and  _359
REMARK  157  A    between atoms: _364  and  _366
REMARK  158  A    between atoms: _366  and  _367
REMARK  159  A    between atoms: _366  and  _369
REMARK  160  A    between atoms: _369  and  _370
REMARK  161  A    between atoms: _373  and  _375
REMARK  162  A    between atoms: _375  and  _376
REMARK  163  A    between atoms: _375  and  _378
REMARK  164  A    between atoms: _381  and  _383
REMARK  165  A    between atoms: _383  and  _384
REMARK  166  A    between atoms: _383  and  _386
REMARK  167  A    between atoms: _386  and  _387
REMARK  168  A    between atoms: _389  and  _391
REMARK  169  A    between atoms: _391  and  _392
REMARK  170  A    between atoms: _391  and  _394
REMARK  171  A    between atoms: _394  and  _395
REMARK  172  A    between atoms: _405  and  _407
REMARK  173  A    between atoms: _407  and  _408
REMARK  174  A    between atoms: _410  and  _412
REMARK  175  A    between atoms: _412  and  _413
REMARK  176  A    between atoms: _412  and  _415
REMARK  177  A    between atoms: _415  and  _416
REMARK  178  A    between atoms: _416  and  _417
REMARK  179  A    between atoms: _420  and  _422
REMARK  180  A    between atoms: _422  and  _423
REMARK  181  A    between atoms: _425  and  _427
REMARK  182  A    between atoms: _427  and  _428
REMARK  183  A    between atoms: _427  and  _430
REMARK  184  A    between atoms: _430  and  _431
REMARK  185  A    between atoms: _432  and  _434
REMARK  186  A    between atoms: _434  and  _435
REMARK  187  A    between atoms: _438  and  _440
REMARK  188  A    between atoms: _440  and  _441
REMARK  189  A    between atoms: _440  and  _443
REMARK  190  A    between atoms: _443  and  _444
REMARK  191  A    between atoms: _444  and  _445
REMARK  192  A    between atoms: _445  and  _446
REMARK  193  A    between atoms: _455  and  _457
REMARK  194  A    between atoms: _457  and  _458
REMARK  195  A    between atoms: _457  and  _460
REMARK  196  A    between atoms: _460  and  _461
REMARK  197  A    between atoms: _461  and  _462
REMARK  198  A    between atoms: _462  and  _463
REMARK  199  A    between atoms: _463  and  _464
REMARK  200  A    between atoms: _468  and  _470
REMARK  201  A    between atoms: _470  and  _471
REMARK  202  A    between atoms: _470  and  _473
REMARK  203  A    between atoms: _473  and  _474
REMARK  204  A    between atoms: _479  and  _480
REMARK  205  A    between atoms: _482  and  _484
REMARK  206  A    between atoms: _484  and  _485
REMARK  207  A    between atoms: _487  and  _489
REMARK  208  A    between atoms: _489  and  _490
REMARK  209  A    between atoms: _489  and  _492
REMARK  210  A    between atoms: _492  and  _493
REMARK  211  A    between atoms: _496  and  _498
REMARK  212  A    between atoms: _498  and  _499
REMARK  213  A    between atoms: _498  and  _501
REMARK  214  A    between atoms: _501  and  _502
REMARK  215  A    between atoms: _507  and  _508
REMARK  216  A    between atoms: _510  and  _512
REMARK  217  A    between atoms: _512  and  _513
REMARK  218  A    between atoms: _512  and  _515
REMARK  219  A    between atoms: _515  and  _516
REMARK                            x       y       z     vdW  Elec       q    Type
REMARK                         _______ _______ _______ _____ _____    ______ ____
ROOT
ATOM      1  O   HOH     1       6.884  68.471  -0.861  0.00  0.00    +0.000 OA
ENDROOT
TORSDOF 0
