REMARK  Name = ../refined-set-2016/1yet/1yet_pocket.pdb
REMARK  219 active torsions:
REMARK  status: ('A' for Active; 'I' for Inactive)
REMARK    1  A    between atoms: _1  and  _3
REMARK    2  A    between atoms: _3  and  _4
REMARK    3  A    between atoms: _3  and  _6
REMARK    4  A    between atoms: _6  and  _7
REMARK    5  A    between atoms: _10  and  _12
REMARK    6  A    between atoms: _12  and  _13
REMARK    7  A    between atoms: _12  and  _15
REMARK    8  A    between atoms: _15  and  _16
REMARK    9  A    between atoms: _19  and  _21
REMARK   10  A    between atoms: _21  and  _22
REMARK   11  A    between atoms: _21  and  _24
REMARK   12  A    between atoms: _24  and  _25
REMARK   13  A    between atoms: _25  and  _26
REMARK   14  A    between atoms: _29  and  _31
REMARK   15  A    between atoms: _31  and  _32
REMARK   16  A    between atoms: _31  and  _34
REMARK   17  A    between atoms: _34  and  _35
REMARK   18  A    between atoms: _38  and  _40
REMARK   19  A    between atoms: _40  and  _41
REMARK   20  A    between atoms: _40  and  _43
REMARK   21  A    between atoms: _43  and  _44
REMARK   22  A    between atoms: _47  and  _49
REMARK   23  A    between atoms: _49  and  _50
REMARK   24  A    between atoms: _49  and  _52
REMARK   25  A    between atoms: _52  and  _53
REMARK   26  A    between atoms: _55  and  _57
REMARK   27  A    between atoms: _57  and  _58
REMARK   28  A    between atoms: _57  and  _60
REMARK   29  A    between atoms: _60  and  _61
REMARK   30  A    between atoms: _66  and  _68
REMARK   31  A    between atoms: _68  and  _69
REMARK   32  A    between atoms: _68  and  _71
REMARK   33  A    between atoms: _71  and  _72
REMARK   34  A    between atoms: _74  and  _76
REMARK   35  A    between atoms: _76  and  _77
REMARK   36  A    between atoms: _76  and  _79
REMARK   37  A    between atoms: _79  and  _80
REMARK   38  A    between atoms: _82  and  _84
REMARK   39  A    between atoms: _84  and  _85
REMARK   40  A    between atoms: _84  and  _87
REMARK   41  A    between atoms: _87  and  _88
REMARK   42  A    between atoms: _91  and  _93
REMARK   43  A    between atoms: _93  and  _94
REMARK   44  A    between atoms: _97  and  _99
REMARK   45  A    between atoms: _99  and  _100
REMARK   46  A    between atoms: _99  and  _102
REMARK   47  A    between atoms: _102  and  _103
REMARK   48  A    between atoms: _106  and  _108
REMARK   49  A    between atoms: _108  and  _109
REMARK   50  A    between atoms: _108  and  _111
REMARK   51  A    between atoms: _111  and  _112
REMARK   52  A    between atoms: _115  and  _117
REMARK   53  A    between atoms: _117  and  _118
REMARK   54  A    between atoms: _117  and  _120
REMARK   55  A    between atoms: _120  and  _121
REMARK   56  A    between atoms: _121  and  _122
REMARK   57  A    between atoms: _122  and  _123
REMARK   58  A    between atoms: _123  and  _124
REMARK   59  A    between atoms: _128  and  _130
REMARK   60  A    between atoms: _130  and  _131
REMARK   61  A    between atoms: _130  and  _133
REMARK   62  A    between atoms: _133  and  _134
REMARK   63  A    between atoms: _137  and  _139
REMARK   64  A    between atoms: _139  and  _140
REMARK   65  A    between atoms: _139  and  _142
REMARK   66  A    between atoms: _142  and  _143
REMARK   67  A    between atoms: _143  and  _144
REMARK   68  A    between atoms: _147  and  _149
REMARK   69  A    between atoms: _149  and  _150
REMARK   70  A    between atoms: _149  and  _152
REMARK   71  A    between atoms: _152  and  _153
REMARK   72  A    between atoms: _156  and  _158
REMARK   73  A    between atoms: _158  and  _159
REMARK   74  A    between atoms: _158  and  _161
REMARK   75  A    between atoms: _161  and  _162
REMARK   76  A    between atoms: _165  and  _167
REMARK   77  A    between atoms: _167  and  _168
REMARK   78  A    between atoms: _167  and  _170
REMARK   79  A    between atoms: _173  and  _175
REMARK   80  A    between atoms: _175  and  _176
REMARK   81  A    between atoms: _175  and  _178
REMARK   82  A    between atoms: _178  and  _179
REMARK   83  A    between atoms: _182  and  _184
REMARK   84  A    between atoms: _184  and  _185
REMARK   85  A    between atoms: _184  and  _187
REMARK   86  A    between atoms: _187  and  _188
REMARK   87  A    between atoms: _191  and  _193
REMARK   88  A    between atoms: _193  and  _194
REMARK   89  A    between atoms: _196  and  _198
REMARK   90  A    between atoms: _198  and  _199
REMARK   91  A    between atoms: _198  and  _201
REMARK   92  A    between atoms: _201  and  _202
REMARK   93  A    between atoms: _205  and  _207
REMARK   94  A    between atoms: _207  and  _208
REMARK   95  A    between atoms: _210  and  _212
REMARK   96  A    between atoms: _212  and  _213
REMARK   97  A    between atoms: _212  and  _215
REMARK   98  A    between atoms: _215  and  _216
REMARK   99  A    between atoms: _216  and  _217
REMARK  100  A    between atoms: _219  and  _221
REMARK  101  A    between atoms: _221  and  _222
REMARK  102  A    between atoms: _221  and  _224
REMARK  103  A    between atoms: _224  and  _225
REMARK  104  A    between atoms: _228  and  _230
REMARK  105  A    between atoms: _230  and  _231
REMARK  106  A    between atoms: _234  and  _236
REMARK  107  A    between atoms: _236  and  _237
REMARK  108  A    between atoms: _236  and  _239
REMARK  109  A    between atoms: _239  and  _240
REMARK  110  A    between atoms: _243  and  _245
REMARK  111  A    between atoms: _245  and  _246
REMARK  112  A    between atoms: _245  and  _248
REMARK  113  A    between atoms: _248  and  _249
REMARK  114  A    between atoms: _252  and  _254
REMARK  115  A    between atoms: _254  and  _255
REMARK  116  A    between atoms: _254  and  _257
REMARK  117  A    between atoms: _257  and  _258
REMARK  118  A    between atoms: _263  and  _265
REMARK  119  A    between atoms: _265  and  _266
REMARK  120  A    between atoms: _265  and  _268
REMARK  121  A    between atoms: _268  and  _269
REMARK  122  A    between atoms: _274  and  _276
REMARK  123  A    between atoms: _276  and  _277
REMARK  124  A    between atoms: _276  and  _279
REMARK  125  A    between atoms: _279  and  _280
REMARK  126  A    between atoms: _283  and  _285
REMARK  127  A    between atoms: _285  and  _286
REMARK  128  A    between atoms: _288  and  _290
REMARK  129  A    between atoms: _290  and  _291
REMARK  130  A    between atoms: _290  and  _293
REMARK  131  A    between atoms: _293  and  _294
REMARK  132  A    between atoms: _297  and  _299
REMARK  133  A    between atoms: _299  and  _300
REMARK  134  A    between atoms: _299  and  _302
REMARK  135  A    between atoms: _302  and  _303
REMARK  136  A    between atoms: _303  and  _304
REMARK  137  A    between atoms: _304  and  _305
REMARK  138  A    between atoms: _305  and  _306
REMARK  139  A    between atoms: _310  and  _312
REMARK  140  A    between atoms: _312  and  _313
REMARK  141  A    between atoms: _312  and  _315
REMARK  142  A    between atoms: _315  and  _316
REMARK  143  A    between atoms: _319  and  _321
REMARK  144  A    between atoms: _321  and  _322
REMARK  145  A    between atoms: _324  and  _326
REMARK  146  A    between atoms: _326  and  _327
REMARK  147  A    between atoms: _326  and  _329
REMARK  148  A    between atoms: _329  and  _330
REMARK  149  A    between atoms: _336  and  _338
REMARK  150  A    between atoms: _338  and  _339
REMARK  151  A    between atoms: _341  and  _343
REMARK  152  A    between atoms: _343  and  _344
REMARK  153  A    between atoms: _343  and  _346
REMARK  154  A    between atoms: _349  and  _351
REMARK  155  A    between atoms: _351  and  _352
REMARK  156  A    between atoms: _354  and  _356
REMARK  157  A    between atoms: _356  and  _357
REMARK  158  A    between atoms: _356  and  _359
REMARK  159  A    between atoms: _359  and  _360
REMARK  160  A    between atoms: _366  and  _368
REMARK  161  A    between atoms: _368  and  _369
REMARK  162  A    between atoms: _368  and  _371
REMARK  163  A    between atoms: _371  and  _372
REMARK  164  A    between atoms: _377  and  _378
REMARK  165  A    between atoms: _380  and  _382
REMARK  166  A    between atoms: _382  and  _383
REMARK  167  A    between atoms: _382  and  _385
REMARK  168  A    between atoms: _385  and  _386
REMARK  169  A    between atoms: _388  and  _390
REMARK  170  A    between atoms: _390  and  _391
REMARK  171  A    between atoms: _394  and  _396
REMARK  172  A    between atoms: _396  and  _397
REMARK  173  A    between atoms: _396  and  _399
REMARK  174  A    between atoms: _402  and  _404
REMARK  175  A    between atoms: _404  and  _405
REMARK  176  A    between atoms: _404  and  _407
REMARK  177  A    between atoms: _407  and  _408
REMARK  178  A    between atoms: _411  and  _413
REMARK  179  A    between atoms: _413  and  _414
REMARK  180  A    between atoms: _413  and  _416
REMARK  181  A    between atoms: _419  and  _421
REMARK  182  A    between atoms: _421  and  _422
REMARK  183  A    between atoms: _421  and  _424
REMARK  184  A    between atoms: _424  and  _425
REMARK  185  A    between atoms: _428  and  _430
REMARK  186  A    between atoms: _430  and  _431
REMARK  187  A    between atoms: _430  and  _433
REMARK  188  A    between atoms: _433  and  _434
REMARK  189  A    between atoms: _437  and  _439
REMARK  190  A    between atoms: _439  and  _440
REMARK  191  A    between atoms: _439  and  _442
REMARK  192  A    between atoms: _442  and  _443
REMARK  193  A    between atoms: _443  and  _444
REMARK  194  A    between atoms: _444  and  _445
REMARK  195  A    between atoms: _445  and  _446
REMARK  196  A    between atoms: _450  and  _452
REMARK  197  A    between atoms: _452  and  _453
REMARK  198  A    between atoms: _452  and  _455
REMARK  199  A    between atoms: _455  and  _456
REMARK  200  A    between atoms: _461  and  _463
REMARK  201  A    between atoms: _463  and  _464
REMARK  202  A    between atoms: _463  and  _466
REMARK  203  A    between atoms: _466  and  _467
REMARK  204  A    between atoms: _477  and  _479
REMARK  205  A    between atoms: _479  and  _480
REMARK  206  A    between atoms: _482  and  _484
REMARK  207  A    between atoms: _484  and  _485
REMARK  208  A    between atoms: _484  and  _487
REMARK  209  A    between atoms: _487  and  _488
REMARK  210  A    between atoms: _491  and  _493
REMARK  211  A    between atoms: _493  and  _494
REMARK  212  A    between atoms: _493  and  _496
REMARK  213  A    between atoms: _496  and  _497
REMARK  214  A    between atoms: _497  and  _498
REMARK  215  A    between atoms: _498  and  _499
REMARK  216  A    between atoms: _499  and  _500
REMARK  217  A    between atoms: _504  and  _506
REMARK  218  A    between atoms: _506  and  _507
REMARK  219  A    between atoms: _506  and  _509
REMARK                            x       y       z     vdW  Elec       q    Type
REMARK                         _______ _______ _______ _____ _____    ______ ____
ROOT
ATOM      1  CA  ILE A   1      40.210 -60.913  67.629  0.00  0.00    +0.133 C 
ENDROOT
BRANCH   1   2
ATOM      2  N   ILE A   1      41.140 -61.901  68.189  0.00  0.00    -0.239 NA
ATOM      3  H   ILE A   1      42.062 -62.056  67.733  0.00  0.00    +0.142 HD
ENDBRANCH   1   2
BRANCH   1   4
ATOM      4  C   ILE A   1      39.051 -61.684  67.018  0.00  0.00    +0.224 C 
ATOM      5  O   ILE A   1      37.885 -61.283  67.146  0.00  0.00    -0.287 OA
ENDBRANCH   1   4
BRANCH   1   6
ATOM      6  CB  ILE A   1      40.890 -60.006  66.570  0.00  0.00    +0.023 C 
ATOM      7  CG2 ILE A   1      39.853 -59.198  65.794  0.00  0.00    +0.002 C 
BRANCH   6   8
ATOM      8  CG1 ILE A   1      41.863 -59.056  67.272  0.00  0.00    +0.002 C 
ATOM      9  CD1 ILE A   1      42.715 -58.228  66.335  0.00  0.00    +0.000 C 
ENDBRANCH   6   8
ENDBRANCH   1   6
TORSDOF 4
REMARK  Name = ../refined-set-2016/1yet/1yet_pocket.pdb
REMARK  219 active torsions:
REMARK  status: ('A' for Active; 'I' for Inactive)
REMARK    1  A    between atoms: _1  and  _3
REMARK    2  A    between atoms: _3  and  _4
REMARK    3  A    between atoms: _3  and  _6
REMARK    4  A    between atoms: _6  and  _7
REMARK    5  A    between atoms: _10  and  _12
REMARK    6  A    between atoms: _12  and  _13
REMARK    7  A    between atoms: _12  and  _15
REMARK    8  A    between atoms: _15  and  _16
REMARK    9  A    between atoms: _19  and  _21
REMARK   10  A    between atoms: _21  and  _22
REMARK   11  A    between atoms: _21  and  _24
REMARK   12  A    between atoms: _24  and  _25
REMARK   13  A    between atoms: _25  and  _26
REMARK   14  A    between atoms: _29  and  _31
REMARK   15  A    between atoms: _31  and  _32
REMARK   16  A    between atoms: _31  and  _34
REMARK   17  A    between atoms: _34  and  _35
REMARK   18  A    between atoms: _38  and  _40
REMARK   19  A    between atoms: _40  and  _41
REMARK   20  A    between atoms: _40  and  _43
REMARK   21  A    between atoms: _43  and  _44
REMARK   22  A    between atoms: _47  and  _49
REMARK   23  A    between atoms: _49  and  _50
REMARK   24  A    between atoms: _49  and  _52
REMARK   25  A    between atoms: _52  and  _53
REMARK   26  A    between atoms: _55  and  _57
REMARK   27  A    between atoms: _57  and  _58
REMARK   28  A    between atoms: _57  and  _60
REMARK   29  A    between atoms: _60  and  _61
REMARK   30  A    between atoms: _66  and  _68
REMARK   31  A    between atoms: _68  and  _69
REMARK   32  A    between atoms: _68  and  _71
REMARK   33  A    between atoms: _71  and  _72
REMARK   34  A    between atoms: _74  and  _76
REMARK   35  A    between atoms: _76  and  _77
REMARK   36  A    between atoms: _76  and  _79
REMARK   37  A    between atoms: _79  and  _80
REMARK   38  A    between atoms: _82  and  _84
REMARK   39  A    between atoms: _84  and  _85
REMARK   40  A    between atoms: _84  and  _87
REMARK   41  A    between atoms: _87  and  _88
REMARK   42  A    between atoms: _91  and  _93
REMARK   43  A    between atoms: _93  and  _94
REMARK   44  A    between atoms: _97  and  _99
REMARK   45  A    between atoms: _99  and  _100
REMARK   46  A    between atoms: _99  and  _102
REMARK   47  A    between atoms: _102  and  _103
REMARK   48  A    between atoms: _106  and  _108
REMARK   49  A    between atoms: _108  and  _109
REMARK   50  A    between atoms: _108  and  _111
REMARK   51  A    between atoms: _111  and  _112
REMARK   52  A    between atoms: _115  and  _117
REMARK   53  A    between atoms: _117  and  _118
REMARK   54  A    between atoms: _117  and  _120
REMARK   55  A    between atoms: _120  and  _121
REMARK   56  A    between atoms: _121  and  _122
REMARK   57  A    between atoms: _122  and  _123
REMARK   58  A    between atoms: _123  and  _124
REMARK   59  A    between atoms: _128  and  _130
REMARK   60  A    between atoms: _130  and  _131
REMARK   61  A    between atoms: _130  and  _133
REMARK   62  A    between atoms: _133  and  _134
REMARK   63  A    between atoms: _137  and  _139
REMARK   64  A    between atoms: _139  and  _140
REMARK   65  A    between atoms: _139  and  _142
REMARK   66  A    between atoms: _142  and  _143
REMARK   67  A    between atoms: _143  and  _144
REMARK   68  A    between atoms: _147  and  _149
REMARK   69  A    between atoms: _149  and  _150
REMARK   70  A    between atoms: _149  and  _152
REMARK   71  A    between atoms: _152  and  _153
REMARK   72  A    between atoms: _156  and  _158
REMARK   73  A    between atoms: _158  and  _159
REMARK   74  A    between atoms: _158  and  _161
REMARK   75  A    between atoms: _161  and  _162
REMARK   76  A    between atoms: _165  and  _167
REMARK   77  A    between atoms: _167  and  _168
REMARK   78  A    between atoms: _167  and  _170
REMARK   79  A    between atoms: _173  and  _175
REMARK   80  A    between atoms: _175  and  _176
REMARK   81  A    between atoms: _175  and  _178
REMARK   82  A    between atoms: _178  and  _179
REMARK   83  A    between atoms: _182  and  _184
REMARK   84  A    between atoms: _184  and  _185
REMARK   85  A    between atoms: _184  and  _187
REMARK   86  A    between atoms: _187  and  _188
REMARK   87  A    between atoms: _191  and  _193
REMARK   88  A    between atoms: _193  and  _194
REMARK   89  A    between atoms: _196  and  _198
REMARK   90  A    between atoms: _198  and  _199
REMARK   91  A    between atoms: _198  and  _201
REMARK   92  A    between atoms: _201  and  _202
REMARK   93  A    between atoms: _205  and  _207
REMARK   94  A    between atoms: _207  and  _208
REMARK   95  A    between atoms: _210  and  _212
REMARK   96  A    between atoms: _212  and  _213
REMARK   97  A    between atoms: _212  and  _215
REMARK   98  A    between atoms: _215  and  _216
REMARK   99  A    between atoms: _216  and  _217
REMARK  100  A    between atoms: _219  and  _221
REMARK  101  A    between atoms: _221  and  _222
REMARK  102  A    between atoms: _221  and  _224
REMARK  103  A    between atoms: _224  and  _225
REMARK  104  A    between atoms: _228  and  _230
REMARK  105  A    between atoms: _230  and  _231
REMARK  106  A    between atoms: _234  and  _236
REMARK  107  A    between atoms: _236  and  _237
REMARK  108  A    between atoms: _236  and  _239
REMARK  109  A    between atoms: _239  and  _240
REMARK  110  A    between atoms: _243  and  _245
REMARK  111  A    between atoms: _245  and  _246
REMARK  112  A    between atoms: _245  and  _248
REMARK  113  A    between atoms: _248  and  _249
REMARK  114  A    between atoms: _252  and  _254
REMARK  115  A    between atoms: _254  and  _255
REMARK  116  A    between atoms: _254  and  _257
REMARK  117  A    between atoms: _257  and  _258
REMARK  118  A    between atoms: _263  and  _265
REMARK  119  A    between atoms: _265  and  _266
REMARK  120  A    between atoms: _265  and  _268
REMARK  121  A    between atoms: _268  and  _269
REMARK  122  A    between atoms: _274  and  _276
REMARK  123  A    between atoms: _276  and  _277
REMARK  124  A    between atoms: _276  and  _279
REMARK  125  A    between atoms: _279  and  _280
REMARK  126  A    between atoms: _283  and  _285
REMARK  127  A    between atoms: _285  and  _286
REMARK  128  A    between atoms: _288  and  _290
REMARK  129  A    between atoms: _290  and  _291
REMARK  130  A    between atoms: _290  and  _293
REMARK  131  A    between atoms: _293  and  _294
REMARK  132  A    between atoms: _297  and  _299
REMARK  133  A    between atoms: _299  and  _300
REMARK  134  A    between atoms: _299  and  _302
REMARK  135  A    between atoms: _302  and  _303
REMARK  136  A    between atoms: _303  and  _304
REMARK  137  A    between atoms: _304  and  _305
REMARK  138  A    between atoms: _305  and  _306
REMARK  139  A    between atoms: _310  and  _312
REMARK  140  A    between atoms: _312  and  _313
REMARK  141  A    between atoms: _312  and  _315
REMARK  142  A    between atoms: _315  and  _316
REMARK  143  A    between atoms: _319  and  _321
REMARK  144  A    between atoms: _321  and  _322
REMARK  145  A    between atoms: _324  and  _326
REMARK  146  A    between atoms: _326  and  _327
REMARK  147  A    between atoms: _326  and  _329
REMARK  148  A    between atoms: _329  and  _330
REMARK  149  A    between atoms: _336  and  _338
REMARK  150  A    between atoms: _338  and  _339
REMARK  151  A    between atoms: _341  and  _343
REMARK  152  A    between atoms: _343  and  _344
REMARK  153  A    between atoms: _343  and  _346
REMARK  154  A    between atoms: _349  and  _351
REMARK  155  A    between atoms: _351  and  _352
REMARK  156  A    between atoms: _354  and  _356
REMARK  157  A    between atoms: _356  and  _357
REMARK  158  A    between atoms: _356  and  _359
REMARK  159  A    between atoms: _359  and  _360
REMARK  160  A    between atoms: _366  and  _368
REMARK  161  A    between atoms: _368  and  _369
REMARK  162  A    between atoms: _368  and  _371
REMARK  163  A    between atoms: _371  and  _372
REMARK  164  A    between atoms: _377  and  _378
REMARK  165  A    between atoms: _380  and  _382
REMARK  166  A    between atoms: _382  and  _383
REMARK  167  A    between atoms: _382  and  _385
REMARK  168  A    between atoms: _385  and  _386
REMARK  169  A    between atoms: _388  and  _390
REMARK  170  A    between atoms: _390  and  _391
REMARK  171  A    between atoms: _394  and  _396
REMARK  172  A    between atoms: _396  and  _397
REMARK  173  A    between atoms: _396  and  _399
REMARK  174  A    between atoms: _402  and  _404
REMARK  175  A    between atoms: _404  and  _405
REMARK  176  A    between atoms: _404  and  _407
REMARK  177  A    between atoms: _407  and  _408
REMARK  178  A    between atoms: _411  and  _413
REMARK  179  A    between atoms: _413  and  _414
REMARK  180  A    between atoms: _413  and  _416
REMARK  181  A    between atoms: _419  and  _421
REMARK  182  A    between atoms: _421  and  _422
REMARK  183  A    between atoms: _421  and  _424
REMARK  184  A    between atoms: _424  and  _425
REMARK  185  A    between atoms: _428  and  _430
REMARK  186  A    between atoms: _430  and  _431
REMARK  187  A    between atoms: _430  and  _433
REMARK  188  A    between atoms: _433  and  _434
REMARK  189  A    between atoms: _437  and  _439
REMARK  190  A    between atoms: _439  and  _440
REMARK  191  A    between atoms: _439  and  _442
REMARK  192  A    between atoms: _442  and  _443
REMARK  193  A    between atoms: _443  and  _444
REMARK  194  A    between atoms: _444  and  _445
REMARK  195  A    between atoms: _445  and  _446
REMARK  196  A    between atoms: _450  and  _452
REMARK  197  A    between atoms: _452  and  _453
REMARK  198  A    between atoms: _452  and  _455
REMARK  199  A    between atoms: _455  and  _456
REMARK  200  A    between atoms: _461  and  _463
REMARK  201  A    between atoms: _463  and  _464
REMARK  202  A    between atoms: _463  and  _466
REMARK  203  A    between atoms: _466  and  _467
REMARK  204  A    between atoms: _477  and  _479
REMARK  205  A    between atoms: _479  and  _480
REMARK  206  A    between atoms: _482  and  _484
REMARK  207  A    between atoms: _484  and  _485
REMARK  208  A    between atoms: _484  and  _487
REMARK  209  A    between atoms: _487  and  _488
REMARK  210  A    between atoms: _491  and  _493
REMARK  211  A    between atoms: _493  and  _494
REMARK  212  A    between atoms: _493  and  _496
REMARK  213  A    between atoms: _496  and  _497
REMARK  214  A    between atoms: _497  and  _498
REMARK  215  A    between atoms: _498  and  _499
REMARK  216  A    between atoms: _499  and  _500
REMARK  217  A    between atoms: _504  and  _506
REMARK  218  A    between atoms: _506  and  _507
REMARK  219  A    between atoms: _506  and  _509
REMARK                            x       y       z     vdW  Elec       q    Type
REMARK                         _______ _______ _______ _____ _____    ______ ____
ROOT
ATOM      1  CA  LEU A   1      36.110 -61.775  70.337  0.00  0.00    +0.133 C 
ENDROOT
BRANCH   1   2
ATOM      2  N   LEU A   1      36.880 -62.906  69.825  0.00  0.00    -0.239 NA
ATOM      3  H   LEU A   1      37.865 -62.754  69.526  0.00  0.00    +0.142 HD
ENDBRANCH   1   2
BRANCH   1   4
ATOM      4  C   LEU A   1      34.900 -61.516  69.429  0.00  0.00    +0.224 C 
ATOM      5  O   LEU A   1      33.782 -61.321  69.909  0.00  0.00    -0.287 OA
ENDBRANCH   1   4
BRANCH   1   6
ATOM      6  CB  LEU A   1      36.997 -60.513  70.409  0.00  0.00    +0.025 C 
BRANCH   6   7
ATOM      7  CG  LEU A   1      36.356 -59.175  70.834  0.00  0.00    +0.002 C 
ATOM      8  CD2 LEU A   1      35.703 -59.297  72.194  0.00  0.00    +0.000 C 
ATOM      9  CD1 LEU A   1      37.389 -58.054  70.840  0.00  0.00    +0.000 C 
ENDBRANCH   6   7
ENDBRANCH   1   6
TORSDOF 4
REMARK  Name = ../refined-set-2016/1yet/1yet_pocket.pdb
REMARK  219 active torsions:
REMARK  status: ('A' for Active; 'I' for Inactive)
REMARK    1  A    between atoms: _1  and  _3
REMARK    2  A    between atoms: _3  and  _4
REMARK    3  A    between atoms: _3  and  _6
REMARK    4  A    between atoms: _6  and  _7
REMARK    5  A    between atoms: _10  and  _12
REMARK    6  A    between atoms: _12  and  _13
REMARK    7  A    between atoms: _12  and  _15
REMARK    8  A    between atoms: _15  and  _16
REMARK    9  A    between atoms: _19  and  _21
REMARK   10  A    between atoms: _21  and  _22
REMARK   11  A    between atoms: _21  and  _24
REMARK   12  A    between atoms: _24  and  _25
REMARK   13  A    between atoms: _25  and  _26
REMARK   14  A    between atoms: _29  and  _31
REMARK   15  A    between atoms: _31  and  _32
REMARK   16  A    between atoms: _31  and  _34
REMARK   17  A    between atoms: _34  and  _35
REMARK   18  A    between atoms: _38  and  _40
REMARK   19  A    between atoms: _40  and  _41
REMARK   20  A    between atoms: _40  and  _43
REMARK   21  A    between atoms: _43  and  _44
REMARK   22  A    between atoms: _47  and  _49
REMARK   23  A    between atoms: _49  and  _50
REMARK   24  A    between atoms: _49  and  _52
REMARK   25  A    between atoms: _52  and  _53
REMARK   26  A    between atoms: _55  and  _57
REMARK   27  A    between atoms: _57  and  _58
REMARK   28  A    between atoms: _57  and  _60
REMARK   29  A    between atoms: _60  and  _61
REMARK   30  A    between atoms: _66  and  _68
REMARK   31  A    between atoms: _68  and  _69
REMARK   32  A    between atoms: _68  and  _71
REMARK   33  A    between atoms: _71  and  _72
REMARK   34  A    between atoms: _74  and  _76
REMARK   35  A    between atoms: _76  and  _77
REMARK   36  A    between atoms: _76  and  _79
REMARK   37  A    between atoms: _79  and  _80
REMARK   38  A    between atoms: _82  and  _84
REMARK   39  A    between atoms: _84  and  _85
REMARK   40  A    between atoms: _84  and  _87
REMARK   41  A    between atoms: _87  and  _88
REMARK   42  A    between atoms: _91  and  _93
REMARK   43  A    between atoms: _93  and  _94
REMARK   44  A    between atoms: _97  and  _99
REMARK   45  A    between atoms: _99  and  _100
REMARK   46  A    between atoms: _99  and  _102
REMARK   47  A    between atoms: _102  and  _103
REMARK   48  A    between atoms: _106  and  _108
REMARK   49  A    between atoms: _108  and  _109
REMARK   50  A    between atoms: _108  and  _111
REMARK   51  A    between atoms: _111  and  _112
REMARK   52  A    between atoms: _115  and  _117
REMARK   53  A    between atoms: _117  and  _118
REMARK   54  A    between atoms: _117  and  _120
REMARK   55  A    between atoms: _120  and  _121
REMARK   56  A    between atoms: _121  and  _122
REMARK   57  A    between atoms: _122  and  _123
REMARK   58  A    between atoms: _123  and  _124
REMARK   59  A    between atoms: _128  and  _130
REMARK   60  A    between atoms: _130  and  _131
REMARK   61  A    between atoms: _130  and  _133
REMARK   62  A    between atoms: _133  and  _134
REMARK   63  A    between atoms: _137  and  _139
REMARK   64  A    between atoms: _139  and  _140
REMARK   65  A    between atoms: _139  and  _142
REMARK   66  A    between atoms: _142  and  _143
REMARK   67  A    between atoms: _143  and  _144
REMARK   68  A    between atoms: _147  and  _149
REMARK   69  A    between atoms: _149  and  _150
REMARK   70  A    between atoms: _149  and  _152
REMARK   71  A    between atoms: _152  and  _153
REMARK   72  A    between atoms: _156  and  _158
REMARK   73  A    between atoms: _158  and  _159
REMARK   74  A    between atoms: _158  and  _161
REMARK   75  A    between atoms: _161  and  _162
REMARK   76  A    between atoms: _165  and  _167
REMARK   77  A    between atoms: _167  and  _168
REMARK   78  A    between atoms: _167  and  _170
REMARK   79  A    between atoms: _173  and  _175
REMARK   80  A    between atoms: _175  and  _176
REMARK   81  A    between atoms: _175  and  _178
REMARK   82  A    between atoms: _178  and  _179
REMARK   83  A    between atoms: _182  and  _184
REMARK   84  A    between atoms: _184  and  _185
REMARK   85  A    between atoms: _184  and  _187
REMARK   86  A    between atoms: _187  and  _188
REMARK   87  A    between atoms: _191  and  _193
REMARK   88  A    between atoms: _193  and  _194
REMARK   89  A    between atoms: _196  and  _198
REMARK   90  A    between atoms: _198  and  _199
REMARK   91  A    between atoms: _198  and  _201
REMARK   92  A    between atoms: _201  and  _202
REMARK   93  A    between atoms: _205  and  _207
REMARK   94  A    between atoms: _207  and  _208
REMARK   95  A    between atoms: _210  and  _212
REMARK   96  A    between atoms: _212  and  _213
REMARK   97  A    between atoms: _212  and  _215
REMARK   98  A    between atoms: _215  and  _216
REMARK   99  A    between atoms: _216  and  _217
REMARK  100  A    between atoms: _219  and  _221
REMARK  101  A    between atoms: _221  and  _222
REMARK  102  A    between atoms: _221  and  _224
REMARK  103  A    between atoms: _224  and  _225
REMARK  104  A    between atoms: _228  and  _230
REMARK  105  A    between atoms: _230  and  _231
REMARK  106  A    between atoms: _234  and  _236
REMARK  107  A    between atoms: _236  and  _237
REMARK  108  A    between atoms: _236  and  _239
REMARK  109  A    between atoms: _239  and  _240
REMARK  110  A    between atoms: _243  and  _245
REMARK  111  A    between atoms: _245  and  _246
REMARK  112  A    between atoms: _245  and  _248
REMARK  113  A    between atoms: _248  and  _249
REMARK  114  A    between atoms: _252  and  _254
REMARK  115  A    between atoms: _254  and  _255
REMARK  116  A    between atoms: _254  and  _257
REMARK  117  A    between atoms: _257  and  _258
REMARK  118  A    between atoms: _263  and  _265
REMARK  119  A    between atoms: _265  and  _266
REMARK  120  A    between atoms: _265  and  _268
REMARK  121  A    between atoms: _268  and  _269
REMARK  122  A    between atoms: _274  and  _276
REMARK  123  A    between atoms: _276  and  _277
REMARK  124  A    between atoms: _276  and  _279
REMARK  125  A    between atoms: _279  and  _280
REMARK  126  A    between atoms: _283  and  _285
REMARK  127  A    between atoms: _285  and  _286
REMARK  128  A    between atoms: _288  and  _290
REMARK  129  A    between atoms: _290  and  _291
REMARK  130  A    between atoms: _290  and  _293
REMARK  131  A    between atoms: _293  and  _294
REMARK  132  A    between atoms: _297  and  _299
REMARK  133  A    between atoms: _299  and  _300
REMARK  134  A    between atoms: _299  and  _302
REMARK  135  A    between atoms: _302  and  _303
REMARK  136  A    between atoms: _303  and  _304
REMARK  137  A    between atoms: _304  and  _305
REMARK  138  A    between atoms: _305  and  _306
REMARK  139  A    between atoms: _310  and  _312
REMARK  140  A    between atoms: _312  and  _313
REMARK  141  A    between atoms: _312  and  _315
REMARK  142  A    between atoms: _315  and  _316
REMARK  143  A    between atoms: _319  and  _321
REMARK  144  A    between atoms: _321  and  _322
REMARK  145  A    between atoms: _324  and  _326
REMARK  146  A    between atoms: _326  and  _327
REMARK  147  A    between atoms: _326  and  _329
REMARK  148  A    between atoms: _329  and  _330
REMARK  149  A    between atoms: _336  and  _338
REMARK  150  A    between atoms: _338  and  _339
REMARK  151  A    between atoms: _341  and  _343
REMARK  152  A    between atoms: _343  and  _344
REMARK  153  A    between atoms: _343  and  _346
REMARK  154  A    between atoms: _349  and  _351
REMARK  155  A    between atoms: _351  and  _352
REMARK  156  A    between atoms: _354  and  _356
REMARK  157  A    between atoms: _356  and  _357
REMARK  158  A    between atoms: _356  and  _359
REMARK  159  A    between atoms: _359  and  _360
REMARK  160  A    between atoms: _366  and  _368
REMARK  161  A    between atoms: _368  and  _369
REMARK  162  A    between atoms: _368  and  _371
REMARK  163  A    between atoms: _371  and  _372
REMARK  164  A    between atoms: _377  and  _378
REMARK  165  A    between atoms: _380  and  _382
REMARK  166  A    between atoms: _382  and  _383
REMARK  167  A    between atoms: _382  and  _385
REMARK  168  A    between atoms: _385  and  _386
REMARK  169  A    between atoms: _388  and  _390
REMARK  170  A    between atoms: _390  and  _391
REMARK  171  A    between atoms: _394  and  _396
REMARK  172  A    between atoms: _396  and  _397
REMARK  173  A    between atoms: _396  and  _399
REMARK  174  A    between atoms: _402  and  _404
REMARK  175  A    between atoms: _404  and  _405
REMARK  176  A    between atoms: _404  and  _407
REMARK  177  A    between atoms: _407  and  _408
REMARK  178  A    between atoms: _411  and  _413
REMARK  179  A    between atoms: _413  and  _414
REMARK  180  A    between atoms: _413  and  _416
REMARK  181  A    between atoms: _419  and  _421
REMARK  182  A    between atoms: _421  and  _422
REMARK  183  A    between atoms: _421  and  _424
REMARK  184  A    between atoms: _424  and  _425
REMARK  185  A    between atoms: _428  and  _430
REMARK  186  A    between atoms: _430  and  _431
REMARK  187  A    between atoms: _430  and  _433
REMARK  188  A    between atoms: _433  and  _434
REMARK  189  A    between atoms: _437  and  _439
REMARK  190  A    between atoms: _439  and  _440
REMARK  191  A    between atoms: _439  and  _442
REMARK  192  A    between atoms: _442  and  _443
REMARK  193  A    between atoms: _443  and  _444
REMARK  194  A    between atoms: _444  and  _445
REMARK  195  A    between atoms: _445  and  _446
REMARK  196  A    between atoms: _450  and  _452
REMARK  197  A    between atoms: _452  and  _453
REMARK  198  A    between atoms: _452  and  _455
REMARK  199  A    between atoms: _455  and  _456
REMARK  200  A    between atoms: _461  and  _463
REMARK  201  A    between atoms: _463  and  _464
REMARK  202  A    between atoms: _463  and  _466
REMARK  203  A    between atoms: _466  and  _467
REMARK  204  A    between atoms: _477  and  _479
REMARK  205  A    between atoms: _479  and  _480
REMARK  206  A    between atoms: _482  and  _484
REMARK  207  A    between atoms: _484  and  _485
REMARK  208  A    between atoms: _484  and  _487
REMARK  209  A    between atoms: _487  and  _488
REMARK  210  A    between atoms: _491  and  _493
REMARK  211  A    between atoms: _493  and  _494
REMARK  212  A    between atoms: _493  and  _496
REMARK  213  A    between atoms: _496  and  _497
REMARK  214  A    between atoms: _497  and  _498
REMARK  215  A    between atoms: _498  and  _499
REMARK  216  A    between atoms: _499  and  _500
REMARK  217  A    between atoms: _504  and  _506
REMARK  218  A    between atoms: _506  and  _507
REMARK  219  A    between atoms: _506  and  _509
REMARK                            x       y       z     vdW  Elec       q    Type
REMARK                         _______ _______ _______ _____ _____    ______ ____
ROOT
ATOM      1  CA  SER A   7      36.015 -37.918  67.193  0.00  0.00    +0.178 C 
ENDROOT
BRANCH   1   3
ATOM      2  C   SER A   6      35.938 -39.302  65.184  0.00  0.00    +0.243 C 
ATOM      3  N   SER A   7      35.541 -39.073  66.431  0.00  0.00    -0.295 N 
ATOM      4  H   SER A   7      34.874 -39.734  66.878  0.00  0.00    +0.150 HD
ATOM      5  O   SER A   6      36.727 -38.556  64.590  0.00  0.00    -0.273 OA
BRANCH   2   6
ATOM      6  CA  SER A   6      35.395 -40.568  64.504  0.00  0.00    +0.178 C 
BRANCH   6   9
ATOM      7  C   ASN A   5      36.535 -42.160  65.957  0.00  0.00    +0.241 C 
ATOM      8  O   ASN A   5      37.651 -41.699  65.667  0.00  0.00    -0.273 OA
ATOM      9  N   SER A   6      35.399 -41.695  65.434  0.00  0.00    -0.295 N 
ATOM     10  H   SER A   6      34.498 -42.144  65.694  0.00  0.00    +0.150 HD
BRANCH   7  11
ATOM     11  CA  ASN A   5      36.396 -43.313  66.948  0.00  0.00    +0.158 C 
BRANCH  11  14
ATOM     12  C   SER A   4      35.368 -41.989  68.744  0.00  0.00    +0.243 C 
ATOM     13  O   SER A   4      36.307 -41.177  68.772  0.00  0.00    -0.273 OA
ATOM     14  N   ASN A   5      35.319 -43.032  67.909  0.00  0.00    -0.297 N 
ATOM     15  H   ASN A   5      34.494 -43.664  67.940  0.00  0.00    +0.150 HD
BRANCH  12  16
ATOM     16  CA  SER A   4      34.163 -41.796  69.664  0.00  0.00    +0.178 C 
BRANCH  16  18
ATOM     17  C   ILE A   3      32.588 -41.359  67.840  0.00  0.00    +0.241 C 
ATOM     18  N   SER A   4      32.948 -42.079  68.907  0.00  0.00    -0.295 N 
ATOM     19  H   SER A   4      32.341 -42.868  69.208  0.00  0.00    +0.150 HD
ATOM     20  O   ILE A   3      33.248 -40.405  67.425  0.00  0.00    -0.273 OA
BRANCH  17  21
ATOM     21  CA  ILE A   3      31.323 -41.789  67.086  0.00  0.00    +0.149 C 
BRANCH  21  23
ATOM     22  C   LEU A   2      32.116 -43.970  66.328  0.00  0.00    +0.241 C 
ATOM     23  N   ILE A   3      31.226 -43.247  67.010  0.00  0.00    -0.297 N 
ATOM     24  H   ILE A   3      30.446 -43.731  67.499  0.00  0.00    +0.150 HD
ATOM     25  O   LEU A   2      33.072 -43.465  65.737  0.00  0.00    -0.273 OA
BRANCH  22  26
ATOM     26  CA  LEU A   2      31.944 -45.498  66.350  0.00  0.00    +0.149 C 
BRANCH  26  29
ATOM     27  C   GLU A   1      32.449 -45.831  68.696  0.00  0.00    +0.238 C 
ATOM     28  O   GLU A   1      33.541 -45.282  68.555  0.00  0.00    -0.274 OA
ATOM     29  N   LEU A   2      31.601 -45.987  67.688  0.00  0.00    -0.297 N 
ATOM     30  H   LEU A   2      30.688 -46.459  67.848  0.00  0.00    +0.150 HD
BRANCH  27  31
ATOM     31  CA  GLU A   1      32.007 -46.380  70.058  0.00  0.00    +0.145 C 
BRANCH  31  32
ATOM     32  N   GLU A   1      30.644 -45.970  70.384  0.00  0.00    -0.238 NA
ATOM     33  H   GLU A   1      29.895 -46.688  70.451  0.00  0.00    +0.142 HD
ENDBRANCH  31  32
BRANCH  31  34
ATOM     34  CB  GLU A   1      32.116 -47.913  70.077  0.00  0.00    +0.038 C 
BRANCH  34  35
ATOM     35  CG  GLU A   1      31.932 -48.513  71.473  0.00  0.00    +0.116 C 
BRANCH  35  36
ATOM     36  CD  GLU A   1      32.969 -47.990  72.469  0.00  0.00    +0.365 C 
ATOM     37  OE2 GLU A   1      32.646 -47.889  73.671  0.00  0.00    -0.246 OA
ATOM     38  OE1 GLU A   1      34.105 -47.680  72.043  0.00  0.00    -0.246 OA
ENDBRANCH  35  36
ENDBRANCH  34  35
ENDBRANCH  31  34
ENDBRANCH  27  31
ENDBRANCH  26  29
BRANCH  26  39
ATOM     39  CB  LEU A   2      30.913 -45.982  65.323  0.00  0.00    +0.029 C 
BRANCH  39  40
ATOM     40  CG  LEU A   2      30.737 -47.511  65.263  0.00  0.00    +0.002 C 
ATOM     41  CD2 LEU A   2      32.057 -48.214  65.010  0.00  0.00    +0.000 C 
ATOM     42  CD1 LEU A   2      29.750 -47.861  64.166  0.00  0.00    +0.000 C 
ENDBRANCH  39  40
ENDBRANCH  26  39
ENDBRANCH  22  26
ENDBRANCH  21  23
BRANCH  21  43
ATOM     43  CB  ILE A   3      30.038 -41.163  67.695  0.00  0.00    +0.027 C 
ATOM     44  CG2 ILE A   3      30.247 -39.666  68.014  0.00  0.00    +0.002 C 
BRANCH  43  45
ATOM     45  CG1 ILE A   3      28.874 -41.352  66.713  0.00  0.00    +0.002 C 
ATOM     46  CD1 ILE A   3      27.534 -40.901  67.237  0.00  0.00    +0.000 C 
ENDBRANCH  43  45
ENDBRANCH  21  43
ENDBRANCH  17  21
ENDBRANCH  16  18
BRANCH  16  47
ATOM     47  CB  SER A   4      34.300 -42.725  70.873  0.00  0.00    +0.166 C 
BRANCH  47  48
ATOM     48  OG  SER A   4      33.307 -42.443  71.840  0.00  0.00    -0.380 OA
ATOM     49  H   SER A   4      32.411 -42.572  71.439  0.00  0.00    +0.211 HD
ENDBRANCH  47  48
ENDBRANCH  16  47
ENDBRANCH  12  16
ENDBRANCH  11  14
BRANCH  11  50
ATOM     50  CB  ASN A   5      36.132 -44.625  66.196  0.00  0.00    +0.114 C 
BRANCH  50  51
ATOM     51  CG  ASN A   5      36.320 -45.855  67.077  0.00  0.00    +0.222 C 
ATOM     52  OD1 ASN A   5      36.691 -45.746  68.249  0.00  0.00    -0.275 OA
ATOM     53  ND2 ASN A   5      36.072 -47.030  66.517  0.00  0.00    -0.329 N 
ATOM     54 HD21 ASN A   5      36.188 -47.904  67.069  0.00  0.00    +0.145 HD
ATOM     55 HD22 ASN A   5      35.761 -47.078  65.526  0.00  0.00    +0.145 HD
ENDBRANCH  50  51
ENDBRANCH  11  50
ENDBRANCH   7  11
ENDBRANCH   6   9
BRANCH   6  56
ATOM     56  CB  SER A   6      33.987 -40.324  63.952  0.00  0.00    +0.166 C 
BRANCH  56  57
ATOM     57  OG  SER A   6      33.516 -41.417  63.173  0.00  0.00    -0.380 OA
ATOM     58  H   SER A   6      34.126 -41.561  62.407  0.00  0.00    +0.211 HD
ENDBRANCH  56  57
ENDBRANCH   6  56
ENDBRANCH   2   6
ENDBRANCH   1   3
BRANCH   1  59
ATOM     59  C   SER A   7      37.544 -37.971  67.338  0.00  0.00    +0.243 C 
ATOM     60  N   ASP A   8      38.068 -39.168  67.598  0.00  0.00    -0.296 N 
ATOM     61  H   ASP A   8      37.426 -39.978  67.711  0.00  0.00    +0.150 HD
ATOM     62  O   SER A   7      38.231 -36.960  67.185  0.00  0.00    -0.273 OA
BRANCH  60  63
ATOM     63  CA  ASP A   8      39.506 -39.391  67.731  0.00  0.00    +0.160 C 
BRANCH  63  64
ATOM     64  C   ASP A   8      40.217 -39.041  66.417  0.00  0.00    +0.241 C 
ATOM     65  O   ASP A   8      41.304 -38.424  66.409  0.00  0.00    -0.273 OA
ATOM     66  N   ALA A   9      39.618 -39.475  65.311  0.00  0.00    -0.297 N 
ATOM     67  H   ALA A   9      38.733 -40.014  65.400  0.00  0.00    +0.150 HD
BRANCH  66  68
ATOM     68  CA  ALA A   9      40.157 -39.223  63.973  0.00  0.00    +0.149 C 
ATOM     69  CB  ALA A   9      39.363 -40.018  62.924  0.00  0.00    +0.031 C 
BRANCH  68  70
ATOM     70  C   ALA A   9      40.149 -37.730  63.610  0.00  0.00    +0.241 C 
ATOM     71  N   LEU A  10      39.117 -37.026  64.059  0.00  0.00    -0.297 N 
ATOM     72  H   LEU A  10      38.389 -37.513  64.619  0.00  0.00    +0.150 HD
ATOM     73  O   ALA A   9      41.044 -37.248  62.912  0.00  0.00    -0.273 OA
BRANCH  71  74
ATOM     74  CA  LEU A  10      38.961 -35.609  63.803  0.00  0.00    +0.149 C 
BRANCH  74  75
ATOM     75  C   LEU A  10      39.993 -34.811  64.607  0.00  0.00    +0.241 C 
ATOM     76  N   ASP A  11      40.246 -35.221  65.851  0.00  0.00    -0.297 N 
ATOM     77  H   ASP A  11      39.706 -36.020  66.240  0.00  0.00    +0.150 HD
ATOM     78  O   LEU A  10      40.599 -33.879  64.076  0.00  0.00    -0.273 OA
BRANCH  76  79
ATOM     79  CA  ASP A  11      41.271 -34.572  66.689  0.00  0.00    +0.160 C 
BRANCH  79  80
ATOM     80  C   ASP A  11      42.635 -34.664  65.982  0.00  0.00    +0.241 C 
ATOM     81  O   ASP A  11      43.387 -33.699  65.936  0.00  0.00    -0.273 OA
ATOM     82  N   LYS A  12      42.946 -35.836  65.435  0.00  0.00    -0.297 N 
ATOM     83  H   LYS A  12      42.265 -36.620  65.494  0.00  0.00    +0.150 HD
BRANCH  82  84
ATOM     84  CA  LYS A  12      44.220 -36.050  64.754  0.00  0.00    +0.149 C 
BRANCH  84  85
ATOM     85  C   LYS A  12      44.440 -35.150  63.530  0.00  0.00    +0.241 C 
ATOM     86  O   LYS A  12      45.501 -34.543  63.392  0.00  0.00    -0.273 OA
ATOM     87  N   ILE A  13      43.457 -35.028  62.650  0.00  0.00    -0.298 N 
ATOM     88  H   ILE A  13      42.569 -35.556  62.770  0.00  0.00    +0.150 HD
BRANCH  87  89
ATOM     89  CA  ILE A  13      43.644 -34.142  61.513  0.00  0.00    +0.137 C 
BRANCH  89  90
ATOM     90  C   ILE A  13      43.626 -32.695  62.016  0.00  0.00    +0.227 C 
ATOM     91  O   ILE A  13      44.376 -31.854  61.508  0.00  0.00    -0.286 OA
ENDBRANCH  89  90
BRANCH  89  92
ATOM     92  CB  ILE A  13      42.594 -34.365  60.385  0.00  0.00    +0.026 C 
ATOM     93  CG2 ILE A  13      41.172 -34.175  60.911  0.00  0.00    +0.002 C 
BRANCH  92  94
ATOM     94  CG1 ILE A  13      42.889 -33.429  59.196  0.00  0.00    +0.002 C 
ATOM     95  CD1 ILE A  13      44.182 -33.758  58.433  0.00  0.00    +0.000 C 
ENDBRANCH  92  94
ENDBRANCH  89  92
ENDBRANCH  87  89
ENDBRANCH  84  85
BRANCH  84  96
ATOM     96  CB  LYS A  12      44.430 -37.542  64.447  0.00  0.00    +0.029 C 
BRANCH  96  97
ATOM     97  CG  LYS A  12      44.899 -38.333  65.684  0.00  0.00    +0.000 C 
BRANCH  97  98
ATOM     98  CD  LYS A  12      44.587 -39.837  65.591  0.00  0.00    -0.024 C 
BRANCH  98  99
ATOM     99  CE  LYS A  12      45.100 -40.602  66.819  0.00  0.00    -0.086 C 
BRANCH  99 100
ATOM    100  NZ  LYS A  12      44.689 -42.042  66.835  0.00  0.00    +0.380 N 
ATOM    101  HZ1 LYS A  12      45.067 -42.500  67.689  0.00  0.00    -0.089 HD
ATOM    102  HZ2 LYS A  12      43.651 -42.105  66.837  0.00  0.00    -0.089 HD
ATOM    103  HZ3 LYS A  12      45.064 -42.518  65.990  0.00  0.00    -0.089 HD
ENDBRANCH  99 100
ENDBRANCH  98  99
ENDBRANCH  97  98
ENDBRANCH  96  97
ENDBRANCH  84  96
ENDBRANCH  82  84
ENDBRANCH  79  80
BRANCH  79 104
ATOM    104  CB  ASP A  11      41.418 -35.284  68.045  0.00  0.00    +0.143 C 
BRANCH 104 105
ATOM    105  CG  ASP A  11      40.310 -34.953  69.030  0.00  0.00    +0.367 C 
ATOM    106  OD2 ASP A  11      40.170 -35.720  69.994  0.00  0.00    -0.246 OA
ATOM    107  OD1 ASP A  11      39.595 -33.942  68.878  0.00  0.00    -0.246 OA
ENDBRANCH 104 105
ENDBRANCH  79 104
ENDBRANCH  76  79
ENDBRANCH  74  75
BRANCH  74 108
ATOM    108  CB  LEU A  10      37.507 -35.187  64.076  0.00  0.00    +0.029 C 
BRANCH 108 109
ATOM    109  CG  LEU A  10      36.473 -35.684  63.033  0.00  0.00    +0.002 C 
ATOM    110  CD2 LEU A  10      35.059 -35.653  63.584  0.00  0.00    +0.000 C 
ATOM    111  CD1 LEU A  10      36.552 -34.841  61.753  0.00  0.00    +0.000 C 
ENDBRANCH 108 109
ENDBRANCH  74 108
ENDBRANCH  71  74
ENDBRANCH  68  70
ENDBRANCH  66  68
ENDBRANCH  63  64
BRANCH  63 112
ATOM    112  CB  ASP A   8      39.747 -40.861  68.073  0.00  0.00    +0.143 C 
BRANCH 112 113
ATOM    113  CG  ASP A   8      41.215 -41.202  68.187  0.00  0.00    +0.367 C 
ATOM    114  OD2 ASP A   8      41.800 -40.898  69.238  0.00  0.00    -0.246 OA
ATOM    115  OD1 ASP A   8      41.785 -41.780  67.238  0.00  0.00    -0.246 OA
ENDBRANCH 112 113
ENDBRANCH  63 112
ENDBRANCH  60  63
ENDBRANCH   1  59
BRANCH   1 116
ATOM    116  CB  SER A   7      35.351 -37.899  68.572  0.00  0.00    +0.166 C 
BRANCH 116 117
ATOM    117  OG  SER A   7      35.628 -36.691  69.255  0.00  0.00    -0.380 OA
ATOM    118  H   SER A   7      36.606 -36.597  69.373  0.00  0.00    +0.211 HD
ENDBRANCH 116 117
ENDBRANCH   1 116
TORSDOF 54
REMARK  Name = ../refined-set-2016/1yet/1yet_pocket.pdb
REMARK  219 active torsions:
REMARK  status: ('A' for Active; 'I' for Inactive)
REMARK    1  A    between atoms: _1  and  _3
REMARK    2  A    between atoms: _3  and  _4
REMARK    3  A    between atoms: _3  and  _6
REMARK    4  A    between atoms: _6  and  _7
REMARK    5  A    between atoms: _10  and  _12
REMARK    6  A    between atoms: _12  and  _13
REMARK    7  A    between atoms: _12  and  _15
REMARK    8  A    between atoms: _15  and  _16
REMARK    9  A    between atoms: _19  and  _21
REMARK   10  A    between atoms: _21  and  _22
REMARK   11  A    between atoms: _21  and  _24
REMARK   12  A    between atoms: _24  and  _25
REMARK   13  A    between atoms: _25  and  _26
REMARK   14  A    between atoms: _29  and  _31
REMARK   15  A    between atoms: _31  and  _32
REMARK   16  A    between atoms: _31  and  _34
REMARK   17  A    between atoms: _34  and  _35
REMARK   18  A    between atoms: _38  and  _40
REMARK   19  A    between atoms: _40  and  _41
REMARK   20  A    between atoms: _40  and  _43
REMARK   21  A    between atoms: _43  and  _44
REMARK   22  A    between atoms: _47  and  _49
REMARK   23  A    between atoms: _49  and  _50
REMARK   24  A    between atoms: _49  and  _52
REMARK   25  A    between atoms: _52  and  _53
REMARK   26  A    between atoms: _55  and  _57
REMARK   27  A    between atoms: _57  and  _58
REMARK   28  A    between atoms: _57  and  _60
REMARK   29  A    between atoms: _60  and  _61
REMARK   30  A    between atoms: _66  and  _68
REMARK   31  A    between atoms: _68  and  _69
REMARK   32  A    between atoms: _68  and  _71
REMARK   33  A    between atoms: _71  and  _72
REMARK   34  A    between atoms: _74  and  _76
REMARK   35  A    between atoms: _76  and  _77
REMARK   36  A    between atoms: _76  and  _79
REMARK   37  A    between atoms: _79  and  _80
REMARK   38  A    between atoms: _82  and  _84
REMARK   39  A    between atoms: _84  and  _85
REMARK   40  A    between atoms: _84  and  _87
REMARK   41  A    between atoms: _87  and  _88
REMARK   42  A    between atoms: _91  and  _93
REMARK   43  A    between atoms: _93  and  _94
REMARK   44  A    between atoms: _97  and  _99
REMARK   45  A    between atoms: _99  and  _100
REMARK   46  A    between atoms: _99  and  _102
REMARK   47  A    between atoms: _102  and  _103
REMARK   48  A    between atoms: _106  and  _108
REMARK   49  A    between atoms: _108  and  _109
REMARK   50  A    between atoms: _108  and  _111
REMARK   51  A    between atoms: _111  and  _112
REMARK   52  A    between atoms: _115  and  _117
REMARK   53  A    between atoms: _117  and  _118
REMARK   54  A    between atoms: _117  and  _120
REMARK   55  A    between atoms: _120  and  _121
REMARK   56  A    between atoms: _121  and  _122
REMARK   57  A    between atoms: _122  and  _123
REMARK   58  A    between atoms: _123  and  _124
REMARK   59  A    between atoms: _128  and  _130
REMARK   60  A    between atoms: _130  and  _131
REMARK   61  A    between atoms: _130  and  _133
REMARK   62  A    between atoms: _133  and  _134
REMARK   63  A    between atoms: _137  and  _139
REMARK   64  A    between atoms: _139  and  _140
REMARK   65  A    between atoms: _139  and  _142
REMARK   66  A    between atoms: _142  and  _143
REMARK   67  A    between atoms: _143  and  _144
REMARK   68  A    between atoms: _147  and  _149
REMARK   69  A    between atoms: _149  and  _150
REMARK   70  A    between atoms: _149  and  _152
REMARK   71  A    between atoms: _152  and  _153
REMARK   72  A    between atoms: _156  and  _158
REMARK   73  A    between atoms: _158  and  _159
REMARK   74  A    between atoms: _158  and  _161
REMARK   75  A    between atoms: _161  and  _162
REMARK   76  A    between atoms: _165  and  _167
REMARK   77  A    between atoms: _167  and  _168
REMARK   78  A    between atoms: _167  and  _170
REMARK   79  A    between atoms: _173  and  _175
REMARK   80  A    between atoms: _175  and  _176
REMARK   81  A    between atoms: _175  and  _178
REMARK   82  A    between atoms: _178  and  _179
REMARK   83  A    between atoms: _182  and  _184
REMARK   84  A    between atoms: _184  and  _185
REMARK   85  A    between atoms: _184  and  _187
REMARK   86  A    between atoms: _187  and  _188
REMARK   87  A    between atoms: _191  and  _193
REMARK   88  A    between atoms: _193  and  _194
REMARK   89  A    between atoms: _196  and  _198
REMARK   90  A    between atoms: _198  and  _199
REMARK   91  A    between atoms: _198  and  _201
REMARK   92  A    between atoms: _201  and  _202
REMARK   93  A    between atoms: _205  and  _207
REMARK   94  A    between atoms: _207  and  _208
REMARK   95  A    between atoms: _210  and  _212
REMARK   96  A    between atoms: _212  and  _213
REMARK   97  A    between atoms: _212  and  _215
REMARK   98  A    between atoms: _215  and  _216
REMARK   99  A    between atoms: _216  and  _217
REMARK  100  A    between atoms: _219  and  _221
REMARK  101  A    between atoms: _221  and  _222
REMARK  102  A    between atoms: _221  and  _224
REMARK  103  A    between atoms: _224  and  _225
REMARK  104  A    between atoms: _228  and  _230
REMARK  105  A    between atoms: _230  and  _231
REMARK  106  A    between atoms: _234  and  _236
REMARK  107  A    between atoms: _236  and  _237
REMARK  108  A    between atoms: _236  and  _239
REMARK  109  A    between atoms: _239  and  _240
REMARK  110  A    between atoms: _243  and  _245
REMARK  111  A    between atoms: _245  and  _246
REMARK  112  A    between atoms: _245  and  _248
REMARK  113  A    between atoms: _248  and  _249
REMARK  114  A    between atoms: _252  and  _254
REMARK  115  A    between atoms: _254  and  _255
REMARK  116  A    between atoms: _254  and  _257
REMARK  117  A    between atoms: _257  and  _258
REMARK  118  A    between atoms: _263  and  _265
REMARK  119  A    between atoms: _265  and  _266
REMARK  120  A    between atoms: _265  and  _268
REMARK  121  A    between atoms: _268  and  _269
REMARK  122  A    between atoms: _274  and  _276
REMARK  123  A    between atoms: _276  and  _277
REMARK  124  A    between atoms: _276  and  _279
REMARK  125  A    between atoms: _279  and  _280
REMARK  126  A    between atoms: _283  and  _285
REMARK  127  A    between atoms: _285  and  _286
REMARK  128  A    between atoms: _288  and  _290
REMARK  129  A    between atoms: _290  and  _291
REMARK  130  A    between atoms: _290  and  _293
REMARK  131  A    between atoms: _293  and  _294
REMARK  132  A    between atoms: _297  and  _299
REMARK  133  A    between atoms: _299  and  _300
REMARK  134  A    between atoms: _299  and  _302
REMARK  135  A    between atoms: _302  and  _303
REMARK  136  A    between atoms: _303  and  _304
REMARK  137  A    between atoms: _304  and  _305
REMARK  138  A    between atoms: _305  and  _306
REMARK  139  A    between atoms: _310  and  _312
REMARK  140  A    between atoms: _312  and  _313
REMARK  141  A    between atoms: _312  and  _315
REMARK  142  A    between atoms: _315  and  _316
REMARK  143  A    between atoms: _319  and  _321
REMARK  144  A    between atoms: _321  and  _322
REMARK  145  A    between atoms: _324  and  _326
REMARK  146  A    between atoms: _326  and  _327
REMARK  147  A    between atoms: _326  and  _329
REMARK  148  A    between atoms: _329  and  _330
REMARK  149  A    between atoms: _336  and  _338
REMARK  150  A    between atoms: _338  and  _339
REMARK  151  A    between atoms: _341  and  _343
REMARK  152  A    between atoms: _343  and  _344
REMARK  153  A    between atoms: _343  and  _346
REMARK  154  A    between atoms: _349  and  _351
REMARK  155  A    between atoms: _351  and  _352
REMARK  156  A    between atoms: _354  and  _356
REMARK  157  A    between atoms: _356  and  _357
REMARK  158  A    between atoms: _356  and  _359
REMARK  159  A    between atoms: _359  and  _360
REMARK  160  A    between atoms: _366  and  _368
REMARK  161  A    between atoms: _368  and  _369
REMARK  162  A    between atoms: _368  and  _371
REMARK  163  A    between atoms: _371  and  _372
REMARK  164  A    between atoms: _377  and  _378
REMARK  165  A    between atoms: _380  and  _382
REMARK  166  A    between atoms: _382  and  _383
REMARK  167  A    between atoms: _382  and  _385
REMARK  168  A    between atoms: _385  and  _386
REMARK  169  A    between atoms: _388  and  _390
REMARK  170  A    between atoms: _390  and  _391
REMARK  171  A    between atoms: _394  and  _396
REMARK  172  A    between atoms: _396  and  _397
REMARK  173  A    between atoms: _396  and  _399
REMARK  174  A    between atoms: _402  and  _404
REMARK  175  A    between atoms: _404  and  _405
REMARK  176  A    between atoms: _404  and  _407
REMARK  177  A    between atoms: _407  and  _408
REMARK  178  A    between atoms: _411  and  _413
REMARK  179  A    between atoms: _413  and  _414
REMARK  180  A    between atoms: _413  and  _416
REMARK  181  A    between atoms: _419  and  _421
REMARK  182  A    between atoms: _421  and  _422
REMARK  183  A    between atoms: _421  and  _424
REMARK  184  A    between atoms: _424  and  _425
REMARK  185  A    between atoms: _428  and  _430
REMARK  186  A    between atoms: _430  and  _431
REMARK  187  A    between atoms: _430  and  _433
REMARK  188  A    between atoms: _433  and  _434
REMARK  189  A    between atoms: _437  and  _439
REMARK  190  A    between atoms: _439  and  _440
REMARK  191  A    between atoms: _439  and  _442
REMARK  192  A    between atoms: _442  and  _443
REMARK  193  A    between atoms: _443  and  _444
REMARK  194  A    between atoms: _444  and  _445
REMARK  195  A    between atoms: _445  and  _446
REMARK  196  A    between atoms: _450  and  _452
REMARK  197  A    between atoms: _452  and  _453
REMARK  198  A    between atoms: _452  and  _455
REMARK  199  A    between atoms: _455  and  _456
REMARK  200  A    between atoms: _461  and  _463
REMARK  201  A    between atoms: _463  and  _464
REMARK  202  A    between atoms: _463  and  _466
REMARK  203  A    between atoms: _466  and  _467
REMARK  204  A    between atoms: _477  and  _479
REMARK  205  A    between atoms: _479  and  _480
REMARK  206  A    between atoms: _482  and  _484
REMARK  207  A    between atoms: _484  and  _485
REMARK  208  A    between atoms: _484  and  _487
REMARK  209  A    between atoms: _487  and  _488
REMARK  210  A    between atoms: _491  and  _493
REMARK  211  A    between atoms: _493  and  _494
REMARK  212  A    between atoms: _493  and  _496
REMARK  213  A    between atoms: _496  and  _497
REMARK  214  A    between atoms: _497  and  _498
REMARK  215  A    between atoms: _498  and  _499
REMARK  216  A    between atoms: _499  and  _500
REMARK  217  A    between atoms: _504  and  _506
REMARK  218  A    between atoms: _506  and  _507
REMARK  219  A    between atoms: _506  and  _509
REMARK                            x       y       z     vdW  Elec       q    Type
REMARK                         _______ _______ _______ _____ _____    ______ ____
ROOT
ATOM      1  CA  GLU A   1      48.091 -32.118  62.299  0.00  0.00    +0.134 C 
ENDROOT
BRANCH   1   2
ATOM      2  N   GLU A   1      47.108 -32.029  63.360  0.00  0.00    -0.239 NA
ATOM      3  H   GLU A   1      46.297 -32.680  63.375  0.00  0.00    +0.142 HD
ENDBRANCH   1   2
BRANCH   1   4
ATOM      4  C   GLU A   1      48.052 -30.880  61.416  0.00  0.00    +0.224 C 
ATOM      5  O   GLU A   1      49.099 -30.402  60.982  0.00  0.00    -0.287 OA
ENDBRANCH   1   4
BRANCH   1   6
ATOM      6  CB  GLU A   1      47.885 -33.374  61.461  0.00  0.00    +0.037 C 
BRANCH   6   7
ATOM      7  CG  GLU A   1      48.340 -34.642  62.146  0.00  0.00    +0.116 C 
BRANCH   7   8
ATOM      8  CD  GLU A   1      48.323 -35.853  61.222  0.00  0.00    +0.365 C 
ATOM      9  OE2 GLU A   1      48.182 -36.990  61.730  0.00  0.00    -0.246 OA
ATOM     10  OE1 GLU A   1      48.454 -35.671  59.987  0.00  0.00    -0.246 OA
ENDBRANCH   7   8
ENDBRANCH   6   7
ENDBRANCH   1   6
TORSDOF 5
REMARK  Name = ../refined-set-2016/1yet/1yet_pocket.pdb
REMARK  219 active torsions:
REMARK  status: ('A' for Active; 'I' for Inactive)
REMARK    1  A    between atoms: _1  and  _3
REMARK    2  A    between atoms: _3  and  _4
REMARK    3  A    between atoms: _3  and  _6
REMARK    4  A    between atoms: _6  and  _7
REMARK    5  A    between atoms: _10  and  _12
REMARK    6  A    between atoms: _12  and  _13
REMARK    7  A    between atoms: _12  and  _15
REMARK    8  A    between atoms: _15  and  _16
REMARK    9  A    between atoms: _19  and  _21
REMARK   10  A    between atoms: _21  and  _22
REMARK   11  A    between atoms: _21  and  _24
REMARK   12  A    between atoms: _24  and  _25
REMARK   13  A    between atoms: _25  and  _26
REMARK   14  A    between atoms: _29  and  _31
REMARK   15  A    between atoms: _31  and  _32
REMARK   16  A    between atoms: _31  and  _34
REMARK   17  A    between atoms: _34  and  _35
REMARK   18  A    between atoms: _38  and  _40
REMARK   19  A    between atoms: _40  and  _41
REMARK   20  A    between atoms: _40  and  _43
REMARK   21  A    between atoms: _43  and  _44
REMARK   22  A    between atoms: _47  and  _49
REMARK   23  A    between atoms: _49  and  _50
REMARK   24  A    between atoms: _49  and  _52
REMARK   25  A    between atoms: _52  and  _53
REMARK   26  A    between atoms: _55  and  _57
REMARK   27  A    between atoms: _57  and  _58
REMARK   28  A    between atoms: _57  and  _60
REMARK   29  A    between atoms: _60  and  _61
REMARK   30  A    between atoms: _66  and  _68
REMARK   31  A    between atoms: _68  and  _69
REMARK   32  A    between atoms: _68  and  _71
REMARK   33  A    between atoms: _71  and  _72
REMARK   34  A    between atoms: _74  and  _76
REMARK   35  A    between atoms: _76  and  _77
REMARK   36  A    between atoms: _76  and  _79
REMARK   37  A    between atoms: _79  and  _80
REMARK   38  A    between atoms: _82  and  _84
REMARK   39  A    between atoms: _84  and  _85
REMARK   40  A    between atoms: _84  and  _87
REMARK   41  A    between atoms: _87  and  _88
REMARK   42  A    between atoms: _91  and  _93
REMARK   43  A    between atoms: _93  and  _94
REMARK   44  A    between atoms: _97  and  _99
REMARK   45  A    between atoms: _99  and  _100
REMARK   46  A    between atoms: _99  and  _102
REMARK   47  A    between atoms: _102  and  _103
REMARK   48  A    between atoms: _106  and  _108
REMARK   49  A    between atoms: _108  and  _109
REMARK   50  A    between atoms: _108  and  _111
REMARK   51  A    between atoms: _111  and  _112
REMARK   52  A    between atoms: _115  and  _117
REMARK   53  A    between atoms: _117  and  _118
REMARK   54  A    between atoms: _117  and  _120
REMARK   55  A    between atoms: _120  and  _121
REMARK   56  A    between atoms: _121  and  _122
REMARK   57  A    between atoms: _122  and  _123
REMARK   58  A    between atoms: _123  and  _124
REMARK   59  A    between atoms: _128  and  _130
REMARK   60  A    between atoms: _130  and  _131
REMARK   61  A    between atoms: _130  and  _133
REMARK   62  A    between atoms: _133  and  _134
REMARK   63  A    between atoms: _137  and  _139
REMARK   64  A    between atoms: _139  and  _140
REMARK   65  A    between atoms: _139  and  _142
REMARK   66  A    between atoms: _142  and  _143
REMARK   67  A    between atoms: _143  and  _144
REMARK   68  A    between atoms: _147  and  _149
REMARK   69  A    between atoms: _149  and  _150
REMARK   70  A    between atoms: _149  and  _152
REMARK   71  A    between atoms: _152  and  _153
REMARK   72  A    between atoms: _156  and  _158
REMARK   73  A    between atoms: _158  and  _159
REMARK   74  A    between atoms: _158  and  _161
REMARK   75  A    between atoms: _161  and  _162
REMARK   76  A    between atoms: _165  and  _167
REMARK   77  A    between atoms: _167  and  _168
REMARK   78  A    between atoms: _167  and  _170
REMARK   79  A    between atoms: _173  and  _175
REMARK   80  A    between atoms: _175  and  _176
REMARK   81  A    between atoms: _175  and  _178
REMARK   82  A    between atoms: _178  and  _179
REMARK   83  A    between atoms: _182  and  _184
REMARK   84  A    between atoms: _184  and  _185
REMARK   85  A    between atoms: _184  and  _187
REMARK   86  A    between atoms: _187  and  _188
REMARK   87  A    between atoms: _191  and  _193
REMARK   88  A    between atoms: _193  and  _194
REMARK   89  A    between atoms: _196  and  _198
REMARK   90  A    between atoms: _198  and  _199
REMARK   91  A    between atoms: _198  and  _201
REMARK   92  A    between atoms: _201  and  _202
REMARK   93  A    between atoms: _205  and  _207
REMARK   94  A    between atoms: _207  and  _208
REMARK   95  A    between atoms: _210  and  _212
REMARK   96  A    between atoms: _212  and  _213
REMARK   97  A    between atoms: _212  and  _215
REMARK   98  A    between atoms: _215  and  _216
REMARK   99  A    between atoms: _216  and  _217
REMARK  100  A    between atoms: _219  and  _221
REMARK  101  A    between atoms: _221  and  _222
REMARK  102  A    between atoms: _221  and  _224
REMARK  103  A    between atoms: _224  and  _225
REMARK  104  A    between atoms: _228  and  _230
REMARK  105  A    between atoms: _230  and  _231
REMARK  106  A    between atoms: _234  and  _236
REMARK  107  A    between atoms: _236  and  _237
REMARK  108  A    between atoms: _236  and  _239
REMARK  109  A    between atoms: _239  and  _240
REMARK  110  A    between atoms: _243  and  _245
REMARK  111  A    between atoms: _245  and  _246
REMARK  112  A    between atoms: _245  and  _248
REMARK  113  A    between atoms: _248  and  _249
REMARK  114  A    between atoms: _252  and  _254
REMARK  115  A    between atoms: _254  and  _255
REMARK  116  A    between atoms: _254  and  _257
REMARK  117  A    between atoms: _257  and  _258
REMARK  118  A    between atoms: _263  and  _265
REMARK  119  A    between atoms: _265  and  _266
REMARK  120  A    between atoms: _265  and  _268
REMARK  121  A    between atoms: _268  and  _269
REMARK  122  A    between atoms: _274  and  _276
REMARK  123  A    between atoms: _276  and  _277
REMARK  124  A    between atoms: _276  and  _279
REMARK  125  A    between atoms: _279  and  _280
REMARK  126  A    between atoms: _283  and  _285
REMARK  127  A    between atoms: _285  and  _286
REMARK  128  A    between atoms: _288  and  _290
REMARK  129  A    between atoms: _290  and  _291
REMARK  130  A    between atoms: _290  and  _293
REMARK  131  A    between atoms: _293  and  _294
REMARK  132  A    between atoms: _297  and  _299
REMARK  133  A    between atoms: _299  and  _300
REMARK  134  A    between atoms: _299  and  _302
REMARK  135  A    between atoms: _302  and  _303
REMARK  136  A    between atoms: _303  and  _304
REMARK  137  A    between atoms: _304  and  _305
REMARK  138  A    between atoms: _305  and  _306
REMARK  139  A    between atoms: _310  and  _312
REMARK  140  A    between atoms: _312  and  _313
REMARK  141  A    between atoms: _312  and  _315
REMARK  142  A    between atoms: _315  and  _316
REMARK  143  A    between atoms: _319  and  _321
REMARK  144  A    between atoms: _321  and  _322
REMARK  145  A    between atoms: _324  and  _326
REMARK  146  A    between atoms: _326  and  _327
REMARK  147  A    between atoms: _326  and  _329
REMARK  148  A    between atoms: _329  and  _330
REMARK  149  A    between atoms: _336  and  _338
REMARK  150  A    between atoms: _338  and  _339
REMARK  151  A    between atoms: _341  and  _343
REMARK  152  A    between atoms: _343  and  _344
REMARK  153  A    between atoms: _343  and  _346
REMARK  154  A    between atoms: _349  and  _351
REMARK  155  A    between atoms: _351  and  _352
REMARK  156  A    between atoms: _354  and  _356
REMARK  157  A    between atoms: _356  and  _357
REMARK  158  A    between atoms: _356  and  _359
REMARK  159  A    between atoms: _359  and  _360
REMARK  160  A    between atoms: _366  and  _368
REMARK  161  A    between atoms: _368  and  _369
REMARK  162  A    between atoms: _368  and  _371
REMARK  163  A    between atoms: _371  and  _372
REMARK  164  A    between atoms: _377  and  _378
REMARK  165  A    between atoms: _380  and  _382
REMARK  166  A    between atoms: _382  and  _383
REMARK  167  A    between atoms: _382  and  _385
REMARK  168  A    between atoms: _385  and  _386
REMARK  169  A    between atoms: _388  and  _390
REMARK  170  A    between atoms: _390  and  _391
REMARK  171  A    between atoms: _394  and  _396
REMARK  172  A    between atoms: _396  and  _397
REMARK  173  A    between atoms: _396  and  _399
REMARK  174  A    between atoms: _402  and  _404
REMARK  175  A    between atoms: _404  and  _405
REMARK  176  A    between atoms: _404  and  _407
REMARK  177  A    between atoms: _407  and  _408
REMARK  178  A    between atoms: _411  and  _413
REMARK  179  A    between atoms: _413  and  _414
REMARK  180  A    between atoms: _413  and  _416
REMARK  181  A    between atoms: _419  and  _421
REMARK  182  A    between atoms: _421  and  _422
REMARK  183  A    between atoms: _421  and  _424
REMARK  184  A    between atoms: _424  and  _425
REMARK  185  A    between atoms: _428  and  _430
REMARK  186  A    between atoms: _430  and  _431
REMARK  187  A    between atoms: _430  and  _433
REMARK  188  A    between atoms: _433  and  _434
REMARK  189  A    between atoms: _437  and  _439
REMARK  190  A    between atoms: _439  and  _440
REMARK  191  A    between atoms: _439  and  _442
REMARK  192  A    between atoms: _442  and  _443
REMARK  193  A    between atoms: _443  and  _444
REMARK  194  A    between atoms: _444  and  _445
REMARK  195  A    between atoms: _445  and  _446
REMARK  196  A    between atoms: _450  and  _452
REMARK  197  A    between atoms: _452  and  _453
REMARK  198  A    between atoms: _452  and  _455
REMARK  199  A    between atoms: _455  and  _456
REMARK  200  A    between atoms: _461  and  _463
REMARK  201  A    between atoms: _463  and  _464
REMARK  202  A    between atoms: _463  and  _466
REMARK  203  A    between atoms: _466  and  _467
REMARK  204  A    between atoms: _477  and  _479
REMARK  205  A    between atoms: _479  and  _480
REMARK  206  A    between atoms: _482  and  _484
REMARK  207  A    between atoms: _484  and  _485
REMARK  208  A    between atoms: _484  and  _487
REMARK  209  A    between atoms: _487  and  _488
REMARK  210  A    between atoms: _491  and  _493
REMARK  211  A    between atoms: _493  and  _494
REMARK  212  A    between atoms: _493  and  _496
REMARK  213  A    between atoms: _496  and  _497
REMARK  214  A    between atoms: _497  and  _498
REMARK  215  A    between atoms: _498  and  _499
REMARK  216  A    between atoms: _499  and  _500
REMARK  217  A    between atoms: _504  and  _506
REMARK  218  A    between atoms: _506  and  _507
REMARK  219  A    between atoms: _506  and  _509
REMARK                            x       y       z     vdW  Elec       q    Type
REMARK                         _______ _______ _______ _____ _____    ______ ____
ROOT
ATOM      1  CA  ILE A   1      30.336 -36.495  61.511  0.00  0.00    +0.133 C 
ENDROOT
BRANCH   1   2
ATOM      2  N   ILE A   1      30.801 -35.114  61.569  0.00  0.00    -0.239 NA
ATOM      3  H   ILE A   1      30.197 -34.402  62.027  0.00  0.00    +0.142 HD
ENDBRANCH   1   2
BRANCH   1   4
ATOM      4  CB  ILE A   1      30.250 -37.103  62.942  0.00  0.00    +0.023 C 
ATOM      5  CG2 ILE A   1      29.575 -38.499  62.906  0.00  0.00    +0.002 C 
BRANCH   4   6
ATOM      6  CG1 ILE A   1      31.648 -37.182  63.570  0.00  0.00    +0.002 C 
ATOM      7  CD1 ILE A   1      31.650 -37.511  65.056  0.00  0.00    +0.000 C 
ENDBRANCH   4   6
ENDBRANCH   1   4
BRANCH   1   8
ATOM      8  C   ILE A   1      28.943 -36.537  60.866  0.00  0.00    +0.224 C 
ATOM      9  O   ILE A   1      28.093 -35.697  61.159  0.00  0.00    -0.287 OA
ENDBRANCH   1   8
TORSDOF 4
REMARK  Name = ../refined-set-2016/1yet/1yet_pocket.pdb
REMARK  219 active torsions:
REMARK  status: ('A' for Active; 'I' for Inactive)
REMARK    1  A    between atoms: _1  and  _3
REMARK    2  A    between atoms: _3  and  _4
REMARK    3  A    between atoms: _3  and  _6
REMARK    4  A    between atoms: _6  and  _7
REMARK    5  A    between atoms: _10  and  _12
REMARK    6  A    between atoms: _12  and  _13
REMARK    7  A    between atoms: _12  and  _15
REMARK    8  A    between atoms: _15  and  _16
REMARK    9  A    between atoms: _19  and  _21
REMARK   10  A    between atoms: _21  and  _22
REMARK   11  A    between atoms: _21  and  _24
REMARK   12  A    between atoms: _24  and  _25
REMARK   13  A    between atoms: _25  and  _26
REMARK   14  A    between atoms: _29  and  _31
REMARK   15  A    between atoms: _31  and  _32
REMARK   16  A    between atoms: _31  and  _34
REMARK   17  A    between atoms: _34  and  _35
REMARK   18  A    between atoms: _38  and  _40
REMARK   19  A    between atoms: _40  and  _41
REMARK   20  A    between atoms: _40  and  _43
REMARK   21  A    between atoms: _43  and  _44
REMARK   22  A    between atoms: _47  and  _49
REMARK   23  A    between atoms: _49  and  _50
REMARK   24  A    between atoms: _49  and  _52
REMARK   25  A    between atoms: _52  and  _53
REMARK   26  A    between atoms: _55  and  _57
REMARK   27  A    between atoms: _57  and  _58
REMARK   28  A    between atoms: _57  and  _60
REMARK   29  A    between atoms: _60  and  _61
REMARK   30  A    between atoms: _66  and  _68
REMARK   31  A    between atoms: _68  and  _69
REMARK   32  A    between atoms: _68  and  _71
REMARK   33  A    between atoms: _71  and  _72
REMARK   34  A    between atoms: _74  and  _76
REMARK   35  A    between atoms: _76  and  _77
REMARK   36  A    between atoms: _76  and  _79
REMARK   37  A    between atoms: _79  and  _80
REMARK   38  A    between atoms: _82  and  _84
REMARK   39  A    between atoms: _84  and  _85
REMARK   40  A    between atoms: _84  and  _87
REMARK   41  A    between atoms: _87  and  _88
REMARK   42  A    between atoms: _91  and  _93
REMARK   43  A    between atoms: _93  and  _94
REMARK   44  A    between atoms: _97  and  _99
REMARK   45  A    between atoms: _99  and  _100
REMARK   46  A    between atoms: _99  and  _102
REMARK   47  A    between atoms: _102  and  _103
REMARK   48  A    between atoms: _106  and  _108
REMARK   49  A    between atoms: _108  and  _109
REMARK   50  A    between atoms: _108  and  _111
REMARK   51  A    between atoms: _111  and  _112
REMARK   52  A    between atoms: _115  and  _117
REMARK   53  A    between atoms: _117  and  _118
REMARK   54  A    between atoms: _117  and  _120
REMARK   55  A    between atoms: _120  and  _121
REMARK   56  A    between atoms: _121  and  _122
REMARK   57  A    between atoms: _122  and  _123
REMARK   58  A    between atoms: _123  and  _124
REMARK   59  A    between atoms: _128  and  _130
REMARK   60  A    between atoms: _130  and  _131
REMARK   61  A    between atoms: _130  and  _133
REMARK   62  A    between atoms: _133  and  _134
REMARK   63  A    between atoms: _137  and  _139
REMARK   64  A    between atoms: _139  and  _140
REMARK   65  A    between atoms: _139  and  _142
REMARK   66  A    between atoms: _142  and  _143
REMARK   67  A    between atoms: _143  and  _144
REMARK   68  A    between atoms: _147  and  _149
REMARK   69  A    between atoms: _149  and  _150
REMARK   70  A    between atoms: _149  and  _152
REMARK   71  A    between atoms: _152  and  _153
REMARK   72  A    between atoms: _156  and  _158
REMARK   73  A    between atoms: _158  and  _159
REMARK   74  A    between atoms: _158  and  _161
REMARK   75  A    between atoms: _161  and  _162
REMARK   76  A    between atoms: _165  and  _167
REMARK   77  A    between atoms: _167  and  _168
REMARK   78  A    between atoms: _167  and  _170
REMARK   79  A    between atoms: _173  and  _175
REMARK   80  A    between atoms: _175  and  _176
REMARK   81  A    between atoms: _175  and  _178
REMARK   82  A    between atoms: _178  and  _179
REMARK   83  A    between atoms: _182  and  _184
REMARK   84  A    between atoms: _184  and  _185
REMARK   85  A    between atoms: _184  and  _187
REMARK   86  A    between atoms: _187  and  _188
REMARK   87  A    between atoms: _191  and  _193
REMARK   88  A    between atoms: _193  and  _194
REMARK   89  A    between atoms: _196  and  _198
REMARK   90  A    between atoms: _198  and  _199
REMARK   91  A    between atoms: _198  and  _201
REMARK   92  A    between atoms: _201  and  _202
REMARK   93  A    between atoms: _205  and  _207
REMARK   94  A    between atoms: _207  and  _208
REMARK   95  A    between atoms: _210  and  _212
REMARK   96  A    between atoms: _212  and  _213
REMARK   97  A    between atoms: _212  and  _215
REMARK   98  A    between atoms: _215  and  _216
REMARK   99  A    between atoms: _216  and  _217
REMARK  100  A    between atoms: _219  and  _221
REMARK  101  A    between atoms: _221  and  _222
REMARK  102  A    between atoms: _221  and  _224
REMARK  103  A    between atoms: _224  and  _225
REMARK  104  A    between atoms: _228  and  _230
REMARK  105  A    between atoms: _230  and  _231
REMARK  106  A    between atoms: _234  and  _236
REMARK  107  A    between atoms: _236  and  _237
REMARK  108  A    between atoms: _236  and  _239
REMARK  109  A    between atoms: _239  and  _240
REMARK  110  A    between atoms: _243  and  _245
REMARK  111  A    between atoms: _245  and  _246
REMARK  112  A    between atoms: _245  and  _248
REMARK  113  A    between atoms: _248  and  _249
REMARK  114  A    between atoms: _252  and  _254
REMARK  115  A    between atoms: _254  and  _255
REMARK  116  A    between atoms: _254  and  _257
REMARK  117  A    between atoms: _257  and  _258
REMARK  118  A    between atoms: _263  and  _265
REMARK  119  A    between atoms: _265  and  _266
REMARK  120  A    between atoms: _265  and  _268
REMARK  121  A    between atoms: _268  and  _269
REMARK  122  A    between atoms: _274  and  _276
REMARK  123  A    between atoms: _276  and  _277
REMARK  124  A    between atoms: _276  and  _279
REMARK  125  A    between atoms: _279  and  _280
REMARK  126  A    between atoms: _283  and  _285
REMARK  127  A    between atoms: _285  and  _286
REMARK  128  A    between atoms: _288  and  _290
REMARK  129  A    between atoms: _290  and  _291
REMARK  130  A    between atoms: _290  and  _293
REMARK  131  A    between atoms: _293  and  _294
REMARK  132  A    between atoms: _297  and  _299
REMARK  133  A    between atoms: _299  and  _300
REMARK  134  A    between atoms: _299  and  _302
REMARK  135  A    between atoms: _302  and  _303
REMARK  136  A    between atoms: _303  and  _304
REMARK  137  A    between atoms: _304  and  _305
REMARK  138  A    between atoms: _305  and  _306
REMARK  139  A    between atoms: _310  and  _312
REMARK  140  A    between atoms: _312  and  _313
REMARK  141  A    between atoms: _312  and  _315
REMARK  142  A    between atoms: _315  and  _316
REMARK  143  A    between atoms: _319  and  _321
REMARK  144  A    between atoms: _321  and  _322
REMARK  145  A    between atoms: _324  and  _326
REMARK  146  A    between atoms: _326  and  _327
REMARK  147  A    between atoms: _326  and  _329
REMARK  148  A    between atoms: _329  and  _330
REMARK  149  A    between atoms: _336  and  _338
REMARK  150  A    between atoms: _338  and  _339
REMARK  151  A    between atoms: _341  and  _343
REMARK  152  A    between atoms: _343  and  _344
REMARK  153  A    between atoms: _343  and  _346
REMARK  154  A    between atoms: _349  and  _351
REMARK  155  A    between atoms: _351  and  _352
REMARK  156  A    between atoms: _354  and  _356
REMARK  157  A    between atoms: _356  and  _357
REMARK  158  A    between atoms: _356  and  _359
REMARK  159  A    between atoms: _359  and  _360
REMARK  160  A    between atoms: _366  and  _368
REMARK  161  A    between atoms: _368  and  _369
REMARK  162  A    between atoms: _368  and  _371
REMARK  163  A    between atoms: _371  and  _372
REMARK  164  A    between atoms: _377  and  _378
REMARK  165  A    between atoms: _380  and  _382
REMARK  166  A    between atoms: _382  and  _383
REMARK  167  A    between atoms: _382  and  _385
REMARK  168  A    between atoms: _385  and  _386
REMARK  169  A    between atoms: _388  and  _390
REMARK  170  A    between atoms: _390  and  _391
REMARK  171  A    between atoms: _394  and  _396
REMARK  172  A    between atoms: _396  and  _397
REMARK  173  A    between atoms: _396  and  _399
REMARK  174  A    between atoms: _402  and  _404
REMARK  175  A    between atoms: _404  and  _405
REMARK  176  A    between atoms: _404  and  _407
REMARK  177  A    between atoms: _407  and  _408
REMARK  178  A    between atoms: _411  and  _413
REMARK  179  A    between atoms: _413  and  _414
REMARK  180  A    between atoms: _413  and  _416
REMARK  181  A    between atoms: _419  and  _421
REMARK  182  A    between atoms: _421  and  _422
REMARK  183  A    between atoms: _421  and  _424
REMARK  184  A    between atoms: _424  and  _425
REMARK  185  A    between atoms: _428  and  _430
REMARK  186  A    between atoms: _430  and  _431
REMARK  187  A    between atoms: _430  and  _433
REMARK  188  A    between atoms: _433  and  _434
REMARK  189  A    between atoms: _437  and  _439
REMARK  190  A    between atoms: _439  and  _440
REMARK  191  A    between atoms: _439  and  _442
REMARK  192  A    between atoms: _442  and  _443
REMARK  193  A    between atoms: _443  and  _444
REMARK  194  A    between atoms: _444  and  _445
REMARK  195  A    between atoms: _445  and  _446
REMARK  196  A    between atoms: _450  and  _452
REMARK  197  A    between atoms: _452  and  _453
REMARK  198  A    between atoms: _452  and  _455
REMARK  199  A    between atoms: _455  and  _456
REMARK  200  A    between atoms: _461  and  _463
REMARK  201  A    between atoms: _463  and  _464
REMARK  202  A    between atoms: _463  and  _466
REMARK  203  A    between atoms: _466  and  _467
REMARK  204  A    between atoms: _477  and  _479
REMARK  205  A    between atoms: _479  and  _480
REMARK  206  A    between atoms: _482  and  _484
REMARK  207  A    between atoms: _484  and  _485
REMARK  208  A    between atoms: _484  and  _487
REMARK  209  A    between atoms: _487  and  _488
REMARK  210  A    between atoms: _491  and  _493
REMARK  211  A    between atoms: _493  and  _494
REMARK  212  A    between atoms: _493  and  _496
REMARK  213  A    between atoms: _496  and  _497
REMARK  214  A    between atoms: _497  and  _498
REMARK  215  A    between atoms: _498  and  _499
REMARK  216  A    between atoms: _499  and  _500
REMARK  217  A    between atoms: _504  and  _506
REMARK  218  A    between atoms: _506  and  _507
REMARK  219  A    between atoms: _506  and  _509
REMARK                            x       y       z     vdW  Elec       q    Type
REMARK                         _______ _______ _______ _____ _____    ______ ____
ROOT
ATOM      1  C   THR A   4      37.500 -36.076  58.507  0.00  0.00    +0.243 C 
ATOM      2  N   GLY A   5      37.711 -37.121  59.294  0.00  0.00    -0.295 N 
ATOM      3  H   GLY A   5      37.007 -37.885  59.333  0.00  0.00    +0.150 HD
ATOM      4  O   THR A   4      38.304 -35.150  58.410  0.00  0.00    -0.273 OA
ENDROOT
BRANCH   2   5
ATOM      5  CA  GLY A   5      38.909 -37.212  60.100  0.00  0.00    +0.176 C 
BRANCH   5   6
ATOM      6  C   GLY A   5      40.160 -37.518  59.307  0.00  0.00    +0.243 C 
ATOM      7  N   ILE A   6      41.199 -37.902  60.034  0.00  0.00    -0.297 N 
ATOM      8  H   ILE A   6      41.077 -37.985  61.063  0.00  0.00    +0.150 HD
ATOM      9  O   GLY A   5      40.162 -37.502  58.086  0.00  0.00    -0.273 OA
BRANCH   7  10
ATOM     10  CA  ILE A   6      42.502 -38.213  59.467  0.00  0.00    +0.149 C 
BRANCH  10  11
ATOM     11  C   ILE A   6      42.501 -39.358  58.452  0.00  0.00    +0.241 C 
ATOM     12  N   GLY A   7      41.615 -40.335  58.627  0.00  0.00    -0.295 N 
ATOM     13  H   GLY A   7      40.952 -40.298  59.427  0.00  0.00    +0.150 HD
ATOM     14  O   ILE A   6      43.304 -39.356  57.517  0.00  0.00    -0.273 OA
BRANCH  12  15
ATOM     15  CA  GLY A   7      41.574 -41.456  57.698  0.00  0.00    +0.176 C 
BRANCH  15  16
ATOM     16  C   GLY A   7      42.675 -42.461  57.989  0.00  0.00    +0.243 C 
ATOM     17  O   GLY A   7      43.466 -42.272  58.917  0.00  0.00    -0.273 OA
ATOM     18  N   MET A   8      42.729 -43.533  57.206  0.00  0.00    -0.297 N 
ATOM     19  H   MET A   8      42.034 -43.636  56.440  0.00  0.00    +0.150 HD
BRANCH  18  20
ATOM     20  CA  MET A   8      43.743 -44.575  57.394  0.00  0.00    +0.149 C 
BRANCH  20  21
ATOM     21  C   MET A   8      44.321 -45.016  56.065  0.00  0.00    +0.241 C 
ATOM     22  N   THR A   9      45.608 -45.345  56.076  0.00  0.00    -0.296 N 
ATOM     23  H   THR A   9      46.148 -45.253  56.960  0.00  0.00    +0.150 HD
ATOM     24  O   MET A   8      43.621 -45.034  55.043  0.00  0.00    -0.273 OA
BRANCH  22  25
ATOM     25  CA  THR A   9      46.285 -45.834  54.872  0.00  0.00    +0.164 C 
BRANCH  25  26
ATOM     26  CB  THR A   9      47.810 -45.624  54.952  0.00  0.00    +0.136 C 
ATOM     27  CG2 THR A   9      48.145 -44.142  55.050  0.00  0.00    +0.034 C 
BRANCH  26  28
ATOM     28  OG1 THR A   9      48.323 -46.294  56.106  0.00  0.00    -0.382 OA
ATOM     29  HG1 THR A   9      49.302 -46.159  56.157  0.00  0.00    +0.210 HD
ENDBRANCH  26  28
ENDBRANCH  25  26
BRANCH  25  30
ATOM     30  C   THR A   9      46.007 -47.339  54.739  0.00  0.00    +0.229 C 
ATOM     31  O   THR A   9      45.386 -47.948  55.618  0.00  0.00    -0.286 OA
ENDBRANCH  25  30
ENDBRANCH  22  25
ENDBRANCH  20  21
BRANCH  20  32
ATOM     32  CB  MET A   8      43.145 -45.812  58.091  0.00  0.00    +0.041 C 
BRANCH  32  33
ATOM     33  CG  MET A   8      42.581 -45.558  59.480  0.00  0.00    +0.060 C 
BRANCH  33  34
ATOM     34  SD  MET A   8      41.720 -47.001  60.122  0.00  0.00    -0.139 S 
ATOM     35  CE  MET A   8      40.095 -46.757  59.495  0.00  0.00    +0.069 C 
ENDBRANCH  33  34
ENDBRANCH  32  33
ENDBRANCH  20  32
ENDBRANCH  18  20
ENDBRANCH  15  16
ENDBRANCH  12  15
ENDBRANCH  10  11
BRANCH  10  36
ATOM     36  CB  ILE A   6      43.542 -38.476  60.618  0.00  0.00    +0.027 C 
ATOM     37  CG2 ILE A   6      43.146 -39.696  61.424  0.00  0.00    +0.002 C 
BRANCH  36  38
ATOM     38  CG1 ILE A   6      44.959 -38.646  60.053  0.00  0.00    +0.002 C 
ATOM     39  CD1 ILE A   6      45.499 -37.406  59.380  0.00  0.00    +0.000 C 
ENDBRANCH  36  38
ENDBRANCH  10  36
ENDBRANCH   7  10
ENDBRANCH   5   6
ENDBRANCH   2   5
BRANCH   1  40
ATOM     40  CA  THR A   4      36.190 -36.115  57.722  0.00  0.00    +0.176 C 
BRANCH  40  42
ATOM     41  C   ASP A   3      34.753 -37.987  58.360  0.00  0.00    +0.241 C 
ATOM     42  N   THR A   4      35.194 -36.751  58.579  0.00  0.00    -0.295 N 
ATOM     43  H   THR A   4      34.816 -36.219  59.389  0.00  0.00    +0.150 HD
ATOM     44  O   ASP A   3      35.066 -38.657  57.374  0.00  0.00    -0.273 OA
BRANCH  41  45
ATOM     45  CA  ASP A   3      33.754 -38.531  59.374  0.00  0.00    +0.160 C 
BRANCH  45  48
ATOM     46  C   VAL A   2      31.687 -39.720  58.906  0.00  0.00    +0.241 C 
ATOM     47  O   VAL A   2      31.041 -38.944  59.607  0.00  0.00    -0.273 OA
ATOM     48  N   ASP A   3      33.005 -39.634  58.772  0.00  0.00    -0.297 N 
ATOM     49  H   ASP A   3      33.513 -40.362  58.231  0.00  0.00    +0.150 HD
BRANCH  46  50
ATOM     50  CA  VAL A   2      30.991 -40.844  58.143  0.00  0.00    +0.148 C 
BRANCH  50  53
ATOM     51  C   ILE A   1      29.939 -42.754  59.261  0.00  0.00    +0.238 C 
ATOM     52  O   ILE A   1      30.865 -43.524  58.970  0.00  0.00    -0.274 OA
ATOM     53  N   VAL A   2      29.920 -41.466  58.915  0.00  0.00    -0.297 N 
ATOM     54  H   VAL A   2      29.110 -40.882  59.207  0.00  0.00    +0.150 HD
BRANCH  51  55
ATOM     55  CA  ILE A   1      28.733 -43.265  60.030  0.00  0.00    +0.145 C 
BRANCH  55  56
ATOM     56  N   ILE A   1      28.179 -44.307  59.170  0.00  0.00    -0.238 NA
ATOM     57  H   ILE A   1      28.728 -45.180  59.036  0.00  0.00    +0.142 HD
ENDBRANCH  55  56
BRANCH  55  58
ATOM     58  CB  ILE A   1      29.193 -43.829  61.396  0.00  0.00    +0.025 C 
ATOM     59  CG2 ILE A   1      29.965 -42.770  62.182  0.00  0.00    +0.002 C 
BRANCH  58  60
ATOM     60  CG1 ILE A   1      27.991 -44.353  62.207  0.00  0.00    +0.002 C 
ATOM     61  CD1 ILE A   1      27.416 -45.687  61.721  0.00  0.00    +0.000 C 
ENDBRANCH  58  60
ENDBRANCH  55  58
ENDBRANCH  51  55
ENDBRANCH  50  53
BRANCH  50  62
ATOM     62  CB  VAL A   2      30.422 -40.185  56.846  0.00  0.00    +0.027 C 
ATOM     63  CG2 VAL A   2      29.486 -41.121  56.121  0.00  0.00    +0.002 C 
ATOM     64  CG1 VAL A   2      31.562 -39.694  55.930  0.00  0.00    +0.002 C 
ENDBRANCH  50  62
ENDBRANCH  46  50
ENDBRANCH  45  48
BRANCH  45  65
ATOM     65  CB  ASP A   3      34.465 -38.915  60.694  0.00  0.00    +0.143 C 
BRANCH  65  66
ATOM     66  CG  ASP A   3      35.581 -39.936  60.505  0.00  0.00    +0.367 C 
ATOM     67  OD2 ASP A   3      35.426 -41.068  61.010  0.00  0.00    -0.246 OA
ATOM     68  OD1 ASP A   3      36.625 -39.610  59.899  0.00  0.00    -0.246 OA
ENDBRANCH  65  66
ENDBRANCH  45  65
ENDBRANCH  41  45
ENDBRANCH  40  42
BRANCH  40  69
ATOM     69  CB  THR A   4      35.732 -34.705  57.263  0.00  0.00    +0.137 C 
ATOM     70  CG2 THR A   4      34.543 -34.810  56.294  0.00  0.00    +0.034 C 
BRANCH  69  71
ATOM     71  OG1 THR A   4      35.321 -33.930  58.394  0.00  0.00    -0.382 OA
ATOM     72  HG1 THR A   4      35.031 -33.033  58.090  0.00  0.00    +0.210 HD
ENDBRANCH  69  71
ENDBRANCH  40  69
ENDBRANCH   1  40
TORSDOF 32
REMARK  Name = ../refined-set-2016/1yet/1yet_pocket.pdb
REMARK  219 active torsions:
REMARK  status: ('A' for Active; 'I' for Inactive)
REMARK    1  A    between atoms: _1  and  _3
REMARK    2  A    between atoms: _3  and  _4
REMARK    3  A    between atoms: _3  and  _6
REMARK    4  A    between atoms: _6  and  _7
REMARK    5  A    between atoms: _10  and  _12
REMARK    6  A    between atoms: _12  and  _13
REMARK    7  A    between atoms: _12  and  _15
REMARK    8  A    between atoms: _15  and  _16
REMARK    9  A    between atoms: _19  and  _21
REMARK   10  A    between atoms: _21  and  _22
REMARK   11  A    between atoms: _21  and  _24
REMARK   12  A    between atoms: _24  and  _25
REMARK   13  A    between atoms: _25  and  _26
REMARK   14  A    between atoms: _29  and  _31
REMARK   15  A    between atoms: _31  and  _32
REMARK   16  A    between atoms: _31  and  _34
REMARK   17  A    between atoms: _34  and  _35
REMARK   18  A    between atoms: _38  and  _40
REMARK   19  A    between atoms: _40  and  _41
REMARK   20  A    between atoms: _40  and  _43
REMARK   21  A    between atoms: _43  and  _44
REMARK   22  A    between atoms: _47  and  _49
REMARK   23  A    between atoms: _49  and  _50
REMARK   24  A    between atoms: _49  and  _52
REMARK   25  A    between atoms: _52  and  _53
REMARK   26  A    between atoms: _55  and  _57
REMARK   27  A    between atoms: _57  and  _58
REMARK   28  A    between atoms: _57  and  _60
REMARK   29  A    between atoms: _60  and  _61
REMARK   30  A    between atoms: _66  and  _68
REMARK   31  A    between atoms: _68  and  _69
REMARK   32  A    between atoms: _68  and  _71
REMARK   33  A    between atoms: _71  and  _72
REMARK   34  A    between atoms: _74  and  _76
REMARK   35  A    between atoms: _76  and  _77
REMARK   36  A    between atoms: _76  and  _79
REMARK   37  A    between atoms: _79  and  _80
REMARK   38  A    between atoms: _82  and  _84
REMARK   39  A    between atoms: _84  and  _85
REMARK   40  A    between atoms: _84  and  _87
REMARK   41  A    between atoms: _87  and  _88
REMARK   42  A    between atoms: _91  and  _93
REMARK   43  A    between atoms: _93  and  _94
REMARK   44  A    between atoms: _97  and  _99
REMARK   45  A    between atoms: _99  and  _100
REMARK   46  A    between atoms: _99  and  _102
REMARK   47  A    between atoms: _102  and  _103
REMARK   48  A    between atoms: _106  and  _108
REMARK   49  A    between atoms: _108  and  _109
REMARK   50  A    between atoms: _108  and  _111
REMARK   51  A    between atoms: _111  and  _112
REMARK   52  A    between atoms: _115  and  _117
REMARK   53  A    between atoms: _117  and  _118
REMARK   54  A    between atoms: _117  and  _120
REMARK   55  A    between atoms: _120  and  _121
REMARK   56  A    between atoms: _121  and  _122
REMARK   57  A    between atoms: _122  and  _123
REMARK   58  A    between atoms: _123  and  _124
REMARK   59  A    between atoms: _128  and  _130
REMARK   60  A    between atoms: _130  and  _131
REMARK   61  A    between atoms: _130  and  _133
REMARK   62  A    between atoms: _133  and  _134
REMARK   63  A    between atoms: _137  and  _139
REMARK   64  A    between atoms: _139  and  _140
REMARK   65  A    between atoms: _139  and  _142
REMARK   66  A    between atoms: _142  and  _143
REMARK   67  A    between atoms: _143  and  _144
REMARK   68  A    between atoms: _147  and  _149
REMARK   69  A    between atoms: _149  and  _150
REMARK   70  A    between atoms: _149  and  _152
REMARK   71  A    between atoms: _152  and  _153
REMARK   72  A    between atoms: _156  and  _158
REMARK   73  A    between atoms: _158  and  _159
REMARK   74  A    between atoms: _158  and  _161
REMARK   75  A    between atoms: _161  and  _162
REMARK   76  A    between atoms: _165  and  _167
REMARK   77  A    between atoms: _167  and  _168
REMARK   78  A    between atoms: _167  and  _170
REMARK   79  A    between atoms: _173  and  _175
REMARK   80  A    between atoms: _175  and  _176
REMARK   81  A    between atoms: _175  and  _178
REMARK   82  A    between atoms: _178  and  _179
REMARK   83  A    between atoms: _182  and  _184
REMARK   84  A    between atoms: _184  and  _185
REMARK   85  A    between atoms: _184  and  _187
REMARK   86  A    between atoms: _187  and  _188
REMARK   87  A    between atoms: _191  and  _193
REMARK   88  A    between atoms: _193  and  _194
REMARK   89  A    between atoms: _196  and  _198
REMARK   90  A    between atoms: _198  and  _199
REMARK   91  A    between atoms: _198  and  _201
REMARK   92  A    between atoms: _201  and  _202
REMARK   93  A    between atoms: _205  and  _207
REMARK   94  A    between atoms: _207  and  _208
REMARK   95  A    between atoms: _210  and  _212
REMARK   96  A    between atoms: _212  and  _213
REMARK   97  A    between atoms: _212  and  _215
REMARK   98  A    between atoms: _215  and  _216
REMARK   99  A    between atoms: _216  and  _217
REMARK  100  A    between atoms: _219  and  _221
REMARK  101  A    between atoms: _221  and  _222
REMARK  102  A    between atoms: _221  and  _224
REMARK  103  A    between atoms: _224  and  _225
REMARK  104  A    between atoms: _228  and  _230
REMARK  105  A    between atoms: _230  and  _231
REMARK  106  A    between atoms: _234  and  _236
REMARK  107  A    between atoms: _236  and  _237
REMARK  108  A    between atoms: _236  and  _239
REMARK  109  A    between atoms: _239  and  _240
REMARK  110  A    between atoms: _243  and  _245
REMARK  111  A    between atoms: _245  and  _246
REMARK  112  A    between atoms: _245  and  _248
REMARK  113  A    between atoms: _248  and  _249
REMARK  114  A    between atoms: _252  and  _254
REMARK  115  A    between atoms: _254  and  _255
REMARK  116  A    between atoms: _254  and  _257
REMARK  117  A    between atoms: _257  and  _258
REMARK  118  A    between atoms: _263  and  _265
REMARK  119  A    between atoms: _265  and  _266
REMARK  120  A    between atoms: _265  and  _268
REMARK  121  A    between atoms: _268  and  _269
REMARK  122  A    between atoms: _274  and  _276
REMARK  123  A    between atoms: _276  and  _277
REMARK  124  A    between atoms: _276  and  _279
REMARK  125  A    between atoms: _279  and  _280
REMARK  126  A    between atoms: _283  and  _285
REMARK  127  A    between atoms: _285  and  _286
REMARK  128  A    between atoms: _288  and  _290
REMARK  129  A    between atoms: _290  and  _291
REMARK  130  A    between atoms: _290  and  _293
REMARK  131  A    between atoms: _293  and  _294
REMARK  132  A    between atoms: _297  and  _299
REMARK  133  A    between atoms: _299  and  _300
REMARK  134  A    between atoms: _299  and  _302
REMARK  135  A    between atoms: _302  and  _303
REMARK  136  A    between atoms: _303  and  _304
REMARK  137  A    between atoms: _304  and  _305
REMARK  138  A    between atoms: _305  and  _306
REMARK  139  A    between atoms: _310  and  _312
REMARK  140  A    between atoms: _312  and  _313
REMARK  141  A    between atoms: _312  and  _315
REMARK  142  A    between atoms: _315  and  _316
REMARK  143  A    between atoms: _319  and  _321
REMARK  144  A    between atoms: _321  and  _322
REMARK  145  A    between atoms: _324  and  _326
REMARK  146  A    between atoms: _326  and  _327
REMARK  147  A    between atoms: _326  and  _329
REMARK  148  A    between atoms: _329  and  _330
REMARK  149  A    between atoms: _336  and  _338
REMARK  150  A    between atoms: _338  and  _339
REMARK  151  A    between atoms: _341  and  _343
REMARK  152  A    between atoms: _343  and  _344
REMARK  153  A    between atoms: _343  and  _346
REMARK  154  A    between atoms: _349  and  _351
REMARK  155  A    between atoms: _351  and  _352
REMARK  156  A    between atoms: _354  and  _356
REMARK  157  A    between atoms: _356  and  _357
REMARK  158  A    between atoms: _356  and  _359
REMARK  159  A    between atoms: _359  and  _360
REMARK  160  A    between atoms: _366  and  _368
REMARK  161  A    between atoms: _368  and  _369
REMARK  162  A    between atoms: _368  and  _371
REMARK  163  A    between atoms: _371  and  _372
REMARK  164  A    between atoms: _377  and  _378
REMARK  165  A    between atoms: _380  and  _382
REMARK  166  A    between atoms: _382  and  _383
REMARK  167  A    between atoms: _382  and  _385
REMARK  168  A    between atoms: _385  and  _386
REMARK  169  A    between atoms: _388  and  _390
REMARK  170  A    between atoms: _390  and  _391
REMARK  171  A    between atoms: _394  and  _396
REMARK  172  A    between atoms: _396  and  _397
REMARK  173  A    between atoms: _396  and  _399
REMARK  174  A    between atoms: _402  and  _404
REMARK  175  A    between atoms: _404  and  _405
REMARK  176  A    between atoms: _404  and  _407
REMARK  177  A    between atoms: _407  and  _408
REMARK  178  A    between atoms: _411  and  _413
REMARK  179  A    between atoms: _413  and  _414
REMARK  180  A    between atoms: _413  and  _416
REMARK  181  A    between atoms: _419  and  _421
REMARK  182  A    between atoms: _421  and  _422
REMARK  183  A    between atoms: _421  and  _424
REMARK  184  A    between atoms: _424  and  _425
REMARK  185  A    between atoms: _428  and  _430
REMARK  186  A    between atoms: _430  and  _431
REMARK  187  A    between atoms: _430  and  _433
REMARK  188  A    between atoms: _433  and  _434
REMARK  189  A    between atoms: _437  and  _439
REMARK  190  A    between atoms: _439  and  _440
REMARK  191  A    between atoms: _439  and  _442
REMARK  192  A    between atoms: _442  and  _443
REMARK  193  A    between atoms: _443  and  _444
REMARK  194  A    between atoms: _444  and  _445
REMARK  195  A    between atoms: _445  and  _446
REMARK  196  A    between atoms: _450  and  _452
REMARK  197  A    between atoms: _452  and  _453
REMARK  198  A    between atoms: _452  and  _455
REMARK  199  A    between atoms: _455  and  _456
REMARK  200  A    between atoms: _461  and  _463
REMARK  201  A    between atoms: _463  and  _464
REMARK  202  A    between atoms: _463  and  _466
REMARK  203  A    between atoms: _466  and  _467
REMARK  204  A    between atoms: _477  and  _479
REMARK  205  A    between atoms: _479  and  _480
REMARK  206  A    between atoms: _482  and  _484
REMARK  207  A    between atoms: _484  and  _485
REMARK  208  A    between atoms: _484  and  _487
REMARK  209  A    between atoms: _487  and  _488
REMARK  210  A    between atoms: _491  and  _493
REMARK  211  A    between atoms: _493  and  _494
REMARK  212  A    between atoms: _493  and  _496
REMARK  213  A    between atoms: _496  and  _497
REMARK  214  A    between atoms: _497  and  _498
REMARK  215  A    between atoms: _498  and  _499
REMARK  216  A    between atoms: _499  and  _500
REMARK  217  A    between atoms: _504  and  _506
REMARK  218  A    between atoms: _506  and  _507
REMARK  219  A    between atoms: _506  and  _509
REMARK                            x       y       z     vdW  Elec       q    Type
REMARK                         _______ _______ _______ _____ _____    ______ ____
ROOT
ATOM      1  CA  ASP A   2      46.823 -48.706  58.767  0.00  0.00    +0.160 C 
ENDROOT
BRANCH   1   4
ATOM      2  C   ALA A   1      48.199 -50.120  57.317  0.00  0.00    +0.238 C 
ATOM      3  O   ALA A   1      48.175 -51.064  58.106  0.00  0.00    -0.274 OA
ATOM      4  N   ASP A   2      47.591 -48.955  57.549  0.00  0.00    -0.297 N 
ATOM      5  H   ASP A   2      47.666 -48.199  56.839  0.00  0.00    +0.150 HD
BRANCH   2   6
ATOM      6  CA  ALA A   1      48.940 -50.256  55.992  0.00  0.00    +0.145 C 
ATOM      7  CB  ALA A   1      50.327 -49.636  56.089  0.00  0.00    +0.028 C 
BRANCH   6   8
ATOM      8  N   ALA A   1      48.179 -49.663  54.902  0.00  0.00    -0.238 NA
ATOM      9  H   ALA A   1      48.604 -48.890  54.351  0.00  0.00    +0.142 HD
ENDBRANCH   6   8
ENDBRANCH   2   6
ENDBRANCH   1   4
BRANCH   1  10
ATOM     10  C   ASP A   2      45.713 -49.734  58.888  0.00  0.00    +0.241 C 
ATOM     11  O   ASP A   2      45.570 -50.371  59.933  0.00  0.00    -0.273 OA
ATOM     12  N   LEU A   3      44.948 -49.905  57.809  0.00  0.00    -0.298 N 
ATOM     13  H   LEU A   3      45.149 -49.337  56.961  0.00  0.00    +0.150 HD
BRANCH  12  14
ATOM     14  CA  LEU A   3      43.835 -50.861  57.767  0.00  0.00    +0.137 C 
BRANCH  14  15
ATOM     15  C   LEU A   3      44.256 -52.296  58.081  0.00  0.00    +0.227 C 
ATOM     16  O   LEU A   3      43.707 -52.942  58.979  0.00  0.00    -0.286 OA
ENDBRANCH  14  15
BRANCH  14  17
ATOM     17  CB  LEU A   3      43.170 -50.858  56.387  0.00  0.00    +0.028 C 
BRANCH  17  18
ATOM     18  CG  LEU A   3      42.173 -49.767  56.024  0.00  0.00    +0.002 C 
ATOM     19  CD2 LEU A   3      41.010 -49.752  57.020  0.00  0.00    +0.000 C 
ATOM     20  CD1 LEU A   3      41.668 -50.026  54.608  0.00  0.00    +0.000 C 
ENDBRANCH  17  18
ENDBRANCH  14  17
ENDBRANCH  12  14
ENDBRANCH   1  10
BRANCH   1  21
ATOM     21  CB  ASP A   2      46.189 -47.307  58.753  0.00  0.00    +0.143 C 
BRANCH  21  22
ATOM     22  CG  ASP A   2      47.165 -46.201  59.132  0.00  0.00    +0.367 C 
ATOM     23  OD2 ASP A   2      48.182 -46.485  59.814  0.00  0.00    -0.246 OA
ATOM     24  OD1 ASP A   2      46.898 -45.033  58.757  0.00  0.00    -0.246 OA
ENDBRANCH  21  22
ENDBRANCH   1  21
TORSDOF 10
REMARK  Name = ../refined-set-2016/1yet/1yet_pocket.pdb
REMARK  219 active torsions:
REMARK  status: ('A' for Active; 'I' for Inactive)
REMARK    1  A    between atoms: _1  and  _3
REMARK    2  A    between atoms: _3  and  _4
REMARK    3  A    between atoms: _3  and  _6
REMARK    4  A    between atoms: _6  and  _7
REMARK    5  A    between atoms: _10  and  _12
REMARK    6  A    between atoms: _12  and  _13
REMARK    7  A    between atoms: _12  and  _15
REMARK    8  A    between atoms: _15  and  _16
REMARK    9  A    between atoms: _19  and  _21
REMARK   10  A    between atoms: _21  and  _22
REMARK   11  A    between atoms: _21  and  _24
REMARK   12  A    between atoms: _24  and  _25
REMARK   13  A    between atoms: _25  and  _26
REMARK   14  A    between atoms: _29  and  _31
REMARK   15  A    between atoms: _31  and  _32
REMARK   16  A    between atoms: _31  and  _34
REMARK   17  A    between atoms: _34  and  _35
REMARK   18  A    between atoms: _38  and  _40
REMARK   19  A    between atoms: _40  and  _41
REMARK   20  A    between atoms: _40  and  _43
REMARK   21  A    between atoms: _43  and  _44
REMARK   22  A    between atoms: _47  and  _49
REMARK   23  A    between atoms: _49  and  _50
REMARK   24  A    between atoms: _49  and  _52
REMARK   25  A    between atoms: _52  and  _53
REMARK   26  A    between atoms: _55  and  _57
REMARK   27  A    between atoms: _57  and  _58
REMARK   28  A    between atoms: _57  and  _60
REMARK   29  A    between atoms: _60  and  _61
REMARK   30  A    between atoms: _66  and  _68
REMARK   31  A    between atoms: _68  and  _69
REMARK   32  A    between atoms: _68  and  _71
REMARK   33  A    between atoms: _71  and  _72
REMARK   34  A    between atoms: _74  and  _76
REMARK   35  A    between atoms: _76  and  _77
REMARK   36  A    between atoms: _76  and  _79
REMARK   37  A    between atoms: _79  and  _80
REMARK   38  A    between atoms: _82  and  _84
REMARK   39  A    between atoms: _84  and  _85
REMARK   40  A    between atoms: _84  and  _87
REMARK   41  A    between atoms: _87  and  _88
REMARK   42  A    between atoms: _91  and  _93
REMARK   43  A    between atoms: _93  and  _94
REMARK   44  A    between atoms: _97  and  _99
REMARK   45  A    between atoms: _99  and  _100
REMARK   46  A    between atoms: _99  and  _102
REMARK   47  A    between atoms: _102  and  _103
REMARK   48  A    between atoms: _106  and  _108
REMARK   49  A    between atoms: _108  and  _109
REMARK   50  A    between atoms: _108  and  _111
REMARK   51  A    between atoms: _111  and  _112
REMARK   52  A    between atoms: _115  and  _117
REMARK   53  A    between atoms: _117  and  _118
REMARK   54  A    between atoms: _117  and  _120
REMARK   55  A    between atoms: _120  and  _121
REMARK   56  A    between atoms: _121  and  _122
REMARK   57  A    between atoms: _122  and  _123
REMARK   58  A    between atoms: _123  and  _124
REMARK   59  A    between atoms: _128  and  _130
REMARK   60  A    between atoms: _130  and  _131
REMARK   61  A    between atoms: _130  and  _133
REMARK   62  A    between atoms: _133  and  _134
REMARK   63  A    between atoms: _137  and  _139
REMARK   64  A    between atoms: _139  and  _140
REMARK   65  A    between atoms: _139  and  _142
REMARK   66  A    between atoms: _142  and  _143
REMARK   67  A    between atoms: _143  and  _144
REMARK   68  A    between atoms: _147  and  _149
REMARK   69  A    between atoms: _149  and  _150
REMARK   70  A    between atoms: _149  and  _152
REMARK   71  A    between atoms: _152  and  _153
REMARK   72  A    between atoms: _156  and  _158
REMARK   73  A    between atoms: _158  and  _159
REMARK   74  A    between atoms: _158  and  _161
REMARK   75  A    between atoms: _161  and  _162
REMARK   76  A    between atoms: _165  and  _167
REMARK   77  A    between atoms: _167  and  _168
REMARK   78  A    between atoms: _167  and  _170
REMARK   79  A    between atoms: _173  and  _175
REMARK   80  A    between atoms: _175  and  _176
REMARK   81  A    between atoms: _175  and  _178
REMARK   82  A    between atoms: _178  and  _179
REMARK   83  A    between atoms: _182  and  _184
REMARK   84  A    between atoms: _184  and  _185
REMARK   85  A    between atoms: _184  and  _187
REMARK   86  A    between atoms: _187  and  _188
REMARK   87  A    between atoms: _191  and  _193
REMARK   88  A    between atoms: _193  and  _194
REMARK   89  A    between atoms: _196  and  _198
REMARK   90  A    between atoms: _198  and  _199
REMARK   91  A    between atoms: _198  and  _201
REMARK   92  A    between atoms: _201  and  _202
REMARK   93  A    between atoms: _205  and  _207
REMARK   94  A    between atoms: _207  and  _208
REMARK   95  A    between atoms: _210  and  _212
REMARK   96  A    between atoms: _212  and  _213
REMARK   97  A    between atoms: _212  and  _215
REMARK   98  A    between atoms: _215  and  _216
REMARK   99  A    between atoms: _216  and  _217
REMARK  100  A    between atoms: _219  and  _221
REMARK  101  A    between atoms: _221  and  _222
REMARK  102  A    between atoms: _221  and  _224
REMARK  103  A    between atoms: _224  and  _225
REMARK  104  A    between atoms: _228  and  _230
REMARK  105  A    between atoms: _230  and  _231
REMARK  106  A    between atoms: _234  and  _236
REMARK  107  A    between atoms: _236  and  _237
REMARK  108  A    between atoms: _236  and  _239
REMARK  109  A    between atoms: _239  and  _240
REMARK  110  A    between atoms: _243  and  _245
REMARK  111  A    between atoms: _245  and  _246
REMARK  112  A    between atoms: _245  and  _248
REMARK  113  A    between atoms: _248  and  _249
REMARK  114  A    between atoms: _252  and  _254
REMARK  115  A    between atoms: _254  and  _255
REMARK  116  A    between atoms: _254  and  _257
REMARK  117  A    between atoms: _257  and  _258
REMARK  118  A    between atoms: _263  and  _265
REMARK  119  A    between atoms: _265  and  _266
REMARK  120  A    between atoms: _265  and  _268
REMARK  121  A    between atoms: _268  and  _269
REMARK  122  A    between atoms: _274  and  _276
REMARK  123  A    between atoms: _276  and  _277
REMARK  124  A    between atoms: _276  and  _279
REMARK  125  A    between atoms: _279  and  _280
REMARK  126  A    between atoms: _283  and  _285
REMARK  127  A    between atoms: _285  and  _286
REMARK  128  A    between atoms: _288  and  _290
REMARK  129  A    between atoms: _290  and  _291
REMARK  130  A    between atoms: _290  and  _293
REMARK  131  A    between atoms: _293  and  _294
REMARK  132  A    between atoms: _297  and  _299
REMARK  133  A    between atoms: _299  and  _300
REMARK  134  A    between atoms: _299  and  _302
REMARK  135  A    between atoms: _302  and  _303
REMARK  136  A    between atoms: _303  and  _304
REMARK  137  A    between atoms: _304  and  _305
REMARK  138  A    between atoms: _305  and  _306
REMARK  139  A    between atoms: _310  and  _312
REMARK  140  A    between atoms: _312  and  _313
REMARK  141  A    between atoms: _312  and  _315
REMARK  142  A    between atoms: _315  and  _316
REMARK  143  A    between atoms: _319  and  _321
REMARK  144  A    between atoms: _321  and  _322
REMARK  145  A    between atoms: _324  and  _326
REMARK  146  A    between atoms: _326  and  _327
REMARK  147  A    between atoms: _326  and  _329
REMARK  148  A    between atoms: _329  and  _330
REMARK  149  A    between atoms: _336  and  _338
REMARK  150  A    between atoms: _338  and  _339
REMARK  151  A    between atoms: _341  and  _343
REMARK  152  A    between atoms: _343  and  _344
REMARK  153  A    between atoms: _343  and  _346
REMARK  154  A    between atoms: _349  and  _351
REMARK  155  A    between atoms: _351  and  _352
REMARK  156  A    between atoms: _354  and  _356
REMARK  157  A    between atoms: _356  and  _357
REMARK  158  A    between atoms: _356  and  _359
REMARK  159  A    between atoms: _359  and  _360
REMARK  160  A    between atoms: _366  and  _368
REMARK  161  A    between atoms: _368  and  _369
REMARK  162  A    between atoms: _368  and  _371
REMARK  163  A    between atoms: _371  and  _372
REMARK  164  A    between atoms: _377  and  _378
REMARK  165  A    between atoms: _380  and  _382
REMARK  166  A    between atoms: _382  and  _383
REMARK  167  A    between atoms: _382  and  _385
REMARK  168  A    between atoms: _385  and  _386
REMARK  169  A    between atoms: _388  and  _390
REMARK  170  A    between atoms: _390  and  _391
REMARK  171  A    between atoms: _394  and  _396
REMARK  172  A    between atoms: _396  and  _397
REMARK  173  A    between atoms: _396  and  _399
REMARK  174  A    between atoms: _402  and  _404
REMARK  175  A    between atoms: _404  and  _405
REMARK  176  A    between atoms: _404  and  _407
REMARK  177  A    between atoms: _407  and  _408
REMARK  178  A    between atoms: _411  and  _413
REMARK  179  A    between atoms: _413  and  _414
REMARK  180  A    between atoms: _413  and  _416
REMARK  181  A    between atoms: _419  and  _421
REMARK  182  A    between atoms: _421  and  _422
REMARK  183  A    between atoms: _421  and  _424
REMARK  184  A    between atoms: _424  and  _425
REMARK  185  A    between atoms: _428  and  _430
REMARK  186  A    between atoms: _430  and  _431
REMARK  187  A    between atoms: _430  and  _433
REMARK  188  A    between atoms: _433  and  _434
REMARK  189  A    between atoms: _437  and  _439
REMARK  190  A    between atoms: _439  and  _440
REMARK  191  A    between atoms: _439  and  _442
REMARK  192  A    between atoms: _442  and  _443
REMARK  193  A    between atoms: _443  and  _444
REMARK  194  A    between atoms: _444  and  _445
REMARK  195  A    between atoms: _445  and  _446
REMARK  196  A    between atoms: _450  and  _452
REMARK  197  A    between atoms: _452  and  _453
REMARK  198  A    between atoms: _452  and  _455
REMARK  199  A    between atoms: _455  and  _456
REMARK  200  A    between atoms: _461  and  _463
REMARK  201  A    between atoms: _463  and  _464
REMARK  202  A    between atoms: _463  and  _466
REMARK  203  A    between atoms: _466  and  _467
REMARK  204  A    between atoms: _477  and  _479
REMARK  205  A    between atoms: _479  and  _480
REMARK  206  A    between atoms: _482  and  _484
REMARK  207  A    between atoms: _484  and  _485
REMARK  208  A    between atoms: _484  and  _487
REMARK  209  A    between atoms: _487  and  _488
REMARK  210  A    between atoms: _491  and  _493
REMARK  211  A    between atoms: _493  and  _494
REMARK  212  A    between atoms: _493  and  _496
REMARK  213  A    between atoms: _496  and  _497
REMARK  214  A    between atoms: _497  and  _498
REMARK  215  A    between atoms: _498  and  _499
REMARK  216  A    between atoms: _499  and  _500
REMARK  217  A    between atoms: _504  and  _506
REMARK  218  A    between atoms: _506  and  _507
REMARK  219  A    between atoms: _506  and  _509
REMARK                            x       y       z     vdW  Elec       q    Type
REMARK                         _______ _______ _______ _____ _____    ______ ____
ROOT
ATOM      1  CA  ASN A   2      45.178 -51.991  63.001  0.00  0.00    +0.158 C 
ENDROOT
BRANCH   1   4
ATOM      2  C   ASN A   1      46.746 -53.447  61.886  0.00  0.00    +0.239 C 
ATOM      3  O   ASN A   1      46.655 -54.313  62.760  0.00  0.00    -0.274 OA
ATOM      4  N   ASN A   2      46.039 -52.327  61.888  0.00  0.00    -0.297 N 
ATOM      5  H   ASN A   2      46.104 -51.679  61.077  0.00  0.00    +0.150 HD
BRANCH   2   6
ATOM      6  CA  ASN A   1      47.655 -53.644  60.704  0.00  0.00    +0.154 C 
BRANCH   6   7
ATOM      7  N   ASN A   1      47.051 -53.480  59.398  0.00  0.00    -0.238 NA
ATOM      8  H   ASN A   1      47.247 -52.620  58.846  0.00  0.00    +0.142 HD
ENDBRANCH   6   7
BRANCH   6   9
ATOM      9  CB  ASN A   1      48.871 -52.735  60.842  0.00  0.00    +0.111 C 
BRANCH   9  10
ATOM     10  CG  ASN A   1      49.972 -53.129  59.900  0.00  0.00    +0.221 C 
ATOM     11  OD1 ASN A   1      50.339 -54.305  59.815  0.00  0.00    -0.275 OA
ATOM     12  ND2 ASN A   1      50.478 -52.167  59.148  0.00  0.00    -0.329 N 
ATOM     13 HD21 ASN A   1      50.138 -51.190  59.255  0.00  0.00    +0.145 HD
ATOM     14 HD22 ASN A   1      51.216 -52.387  58.450  0.00  0.00    +0.145 HD
ENDBRANCH   9  10
ENDBRANCH   6   9
ENDBRANCH   2   6
ENDBRANCH   1   4
BRANCH   1  15
ATOM     15  C   ASN A   2      43.764 -52.485  62.949  0.00  0.00    +0.241 C 
ATOM     16  O   ASN A   2      43.049 -52.383  63.954  0.00  0.00    -0.273 OA
ATOM     17  N   LEU A   3      43.342 -53.005  61.802  0.00  0.00    -0.297 N 
ATOM     18  H   LEU A   3      43.978 -53.060  60.981  0.00  0.00    +0.150 HD
BRANCH  17  19
ATOM     19  CA  LEU A   3      41.987 -53.493  61.713  0.00  0.00    +0.149 C 
BRANCH  19  20
ATOM     20  C   LEU A   3      41.877 -54.990  61.534  0.00  0.00    +0.241 C 
ATOM     21  N   GLY A   4      42.644 -55.743  62.326  0.00  0.00    -0.296 N 
ATOM     22  H   GLY A   4      43.316 -55.297  62.982  0.00  0.00    +0.150 HD
ATOM     23  O   LEU A   3      41.141 -55.461  60.661  0.00  0.00    -0.273 OA
BRANCH  21  24
ATOM     24  CA  GLY A   4      42.532 -57.189  62.264  0.00  0.00    +0.163 C 
BRANCH  24  25
ATOM     25  C   GLY A   4      43.718 -58.121  62.416  0.00  0.00    +0.229 C 
ATOM     26  O   GLY A   4      43.665 -59.085  63.179  0.00  0.00    -0.286 OA
ENDBRANCH  24  25
ENDBRANCH  21  24
ENDBRANCH  19  20
BRANCH  19  27
ATOM     27  CB  LEU A   3      41.196 -52.730  60.642  0.00  0.00    +0.029 C 
BRANCH  27  28
ATOM     28  CG  LEU A   3      39.715 -52.508  60.961  0.00  0.00    +0.002 C 
ATOM     29  CD2 LEU A   3      39.570 -51.963  62.370  0.00  0.00    +0.000 C 
ATOM     30  CD1 LEU A   3      39.075 -51.556  59.953  0.00  0.00    +0.000 C 
ENDBRANCH  27  28
ENDBRANCH  19  27
ENDBRANCH  17  19
ENDBRANCH   1  15
BRANCH   1  31
ATOM     31  CB  ASN A   2      45.193 -50.488  63.245  0.00  0.00    +0.114 C 
BRANCH  31  32
ATOM     32  CG  ASN A   2      46.504 -50.022  63.818  0.00  0.00    +0.222 C 
ATOM     33  OD1 ASN A   2      46.728 -50.107  65.027  0.00  0.00    -0.275 OA
ATOM     34  ND2 ASN A   2      47.397 -49.558  62.954  0.00  0.00    -0.329 N 
ATOM     35 HD21 ASN A   2      48.332 -49.247  63.288  0.00  0.00    +0.145 HD
ATOM     36 HD22 ASN A   2      47.163 -49.505  61.942  0.00  0.00    +0.145 HD
ENDBRANCH  31  32
ENDBRANCH   1  31
TORSDOF 14
REMARK  Name = ../refined-set-2016/1yet/1yet_pocket.pdb
REMARK  219 active torsions:
REMARK  status: ('A' for Active; 'I' for Inactive)
REMARK    1  A    between atoms: _1  and  _3
REMARK    2  A    between atoms: _3  and  _4
REMARK    3  A    between atoms: _3  and  _6
REMARK    4  A    between atoms: _6  and  _7
REMARK    5  A    between atoms: _10  and  _12
REMARK    6  A    between atoms: _12  and  _13
REMARK    7  A    between atoms: _12  and  _15
REMARK    8  A    between atoms: _15  and  _16
REMARK    9  A    between atoms: _19  and  _21
REMARK   10  A    between atoms: _21  and  _22
REMARK   11  A    between atoms: _21  and  _24
REMARK   12  A    between atoms: _24  and  _25
REMARK   13  A    between atoms: _25  and  _26
REMARK   14  A    between atoms: _29  and  _31
REMARK   15  A    between atoms: _31  and  _32
REMARK   16  A    between atoms: _31  and  _34
REMARK   17  A    between atoms: _34  and  _35
REMARK   18  A    between atoms: _38  and  _40
REMARK   19  A    between atoms: _40  and  _41
REMARK   20  A    between atoms: _40  and  _43
REMARK   21  A    between atoms: _43  and  _44
REMARK   22  A    between atoms: _47  and  _49
REMARK   23  A    between atoms: _49  and  _50
REMARK   24  A    between atoms: _49  and  _52
REMARK   25  A    between atoms: _52  and  _53
REMARK   26  A    between atoms: _55  and  _57
REMARK   27  A    between atoms: _57  and  _58
REMARK   28  A    between atoms: _57  and  _60
REMARK   29  A    between atoms: _60  and  _61
REMARK   30  A    between atoms: _66  and  _68
REMARK   31  A    between atoms: _68  and  _69
REMARK   32  A    between atoms: _68  and  _71
REMARK   33  A    between atoms: _71  and  _72
REMARK   34  A    between atoms: _74  and  _76
REMARK   35  A    between atoms: _76  and  _77
REMARK   36  A    between atoms: _76  and  _79
REMARK   37  A    between atoms: _79  and  _80
REMARK   38  A    between atoms: _82  and  _84
REMARK   39  A    between atoms: _84  and  _85
REMARK   40  A    between atoms: _84  and  _87
REMARK   41  A    between atoms: _87  and  _88
REMARK   42  A    between atoms: _91  and  _93
REMARK   43  A    between atoms: _93  and  _94
REMARK   44  A    between atoms: _97  and  _99
REMARK   45  A    between atoms: _99  and  _100
REMARK   46  A    between atoms: _99  and  _102
REMARK   47  A    between atoms: _102  and  _103
REMARK   48  A    between atoms: _106  and  _108
REMARK   49  A    between atoms: _108  and  _109
REMARK   50  A    between atoms: _108  and  _111
REMARK   51  A    between atoms: _111  and  _112
REMARK   52  A    between atoms: _115  and  _117
REMARK   53  A    between atoms: _117  and  _118
REMARK   54  A    between atoms: _117  and  _120
REMARK   55  A    between atoms: _120  and  _121
REMARK   56  A    between atoms: _121  and  _122
REMARK   57  A    between atoms: _122  and  _123
REMARK   58  A    between atoms: _123  and  _124
REMARK   59  A    between atoms: _128  and  _130
REMARK   60  A    between atoms: _130  and  _131
REMARK   61  A    between atoms: _130  and  _133
REMARK   62  A    between atoms: _133  and  _134
REMARK   63  A    between atoms: _137  and  _139
REMARK   64  A    between atoms: _139  and  _140
REMARK   65  A    between atoms: _139  and  _142
REMARK   66  A    between atoms: _142  and  _143
REMARK   67  A    between atoms: _143  and  _144
REMARK   68  A    between atoms: _147  and  _149
REMARK   69  A    between atoms: _149  and  _150
REMARK   70  A    between atoms: _149  and  _152
REMARK   71  A    between atoms: _152  and  _153
REMARK   72  A    between atoms: _156  and  _158
REMARK   73  A    between atoms: _158  and  _159
REMARK   74  A    between atoms: _158  and  _161
REMARK   75  A    between atoms: _161  and  _162
REMARK   76  A    between atoms: _165  and  _167
REMARK   77  A    between atoms: _167  and  _168
REMARK   78  A    between atoms: _167  and  _170
REMARK   79  A    between atoms: _173  and  _175
REMARK   80  A    between atoms: _175  and  _176
REMARK   81  A    between atoms: _175  and  _178
REMARK   82  A    between atoms: _178  and  _179
REMARK   83  A    between atoms: _182  and  _184
REMARK   84  A    between atoms: _184  and  _185
REMARK   85  A    between atoms: _184  and  _187
REMARK   86  A    between atoms: _187  and  _188
REMARK   87  A    between atoms: _191  and  _193
REMARK   88  A    between atoms: _193  and  _194
REMARK   89  A    between atoms: _196  and  _198
REMARK   90  A    between atoms: _198  and  _199
REMARK   91  A    between atoms: _198  and  _201
REMARK   92  A    between atoms: _201  and  _202
REMARK   93  A    between atoms: _205  and  _207
REMARK   94  A    between atoms: _207  and  _208
REMARK   95  A    between atoms: _210  and  _212
REMARK   96  A    between atoms: _212  and  _213
REMARK   97  A    between atoms: _212  and  _215
REMARK   98  A    between atoms: _215  and  _216
REMARK   99  A    between atoms: _216  and  _217
REMARK  100  A    between atoms: _219  and  _221
REMARK  101  A    between atoms: _221  and  _222
REMARK  102  A    between atoms: _221  and  _224
REMARK  103  A    between atoms: _224  and  _225
REMARK  104  A    between atoms: _228  and  _230
REMARK  105  A    between atoms: _230  and  _231
REMARK  106  A    between atoms: _234  and  _236
REMARK  107  A    between atoms: _236  and  _237
REMARK  108  A    between atoms: _236  and  _239
REMARK  109  A    between atoms: _239  and  _240
REMARK  110  A    between atoms: _243  and  _245
REMARK  111  A    between atoms: _245  and  _246
REMARK  112  A    between atoms: _245  and  _248
REMARK  113  A    between atoms: _248  and  _249
REMARK  114  A    between atoms: _252  and  _254
REMARK  115  A    between atoms: _254  and  _255
REMARK  116  A    between atoms: _254  and  _257
REMARK  117  A    between atoms: _257  and  _258
REMARK  118  A    between atoms: _263  and  _265
REMARK  119  A    between atoms: _265  and  _266
REMARK  120  A    between atoms: _265  and  _268
REMARK  121  A    between atoms: _268  and  _269
REMARK  122  A    between atoms: _274  and  _276
REMARK  123  A    between atoms: _276  and  _277
REMARK  124  A    between atoms: _276  and  _279
REMARK  125  A    between atoms: _279  and  _280
REMARK  126  A    between atoms: _283  and  _285
REMARK  127  A    between atoms: _285  and  _286
REMARK  128  A    between atoms: _288  and  _290
REMARK  129  A    between atoms: _290  and  _291
REMARK  130  A    between atoms: _290  and  _293
REMARK  131  A    between atoms: _293  and  _294
REMARK  132  A    between atoms: _297  and  _299
REMARK  133  A    between atoms: _299  and  _300
REMARK  134  A    between atoms: _299  and  _302
REMARK  135  A    between atoms: _302  and  _303
REMARK  136  A    between atoms: _303  and  _304
REMARK  137  A    between atoms: _304  and  _305
REMARK  138  A    between atoms: _305  and  _306
REMARK  139  A    between atoms: _310  and  _312
REMARK  140  A    between atoms: _312  and  _313
REMARK  141  A    between atoms: _312  and  _315
REMARK  142  A    between atoms: _315  and  _316
REMARK  143  A    between atoms: _319  and  _321
REMARK  144  A    between atoms: _321  and  _322
REMARK  145  A    between atoms: _324  and  _326
REMARK  146  A    between atoms: _326  and  _327
REMARK  147  A    between atoms: _326  and  _329
REMARK  148  A    between atoms: _329  and  _330
REMARK  149  A    between atoms: _336  and  _338
REMARK  150  A    between atoms: _338  and  _339
REMARK  151  A    between atoms: _341  and  _343
REMARK  152  A    between atoms: _343  and  _344
REMARK  153  A    between atoms: _343  and  _346
REMARK  154  A    between atoms: _349  and  _351
REMARK  155  A    between atoms: _351  and  _352
REMARK  156  A    between atoms: _354  and  _356
REMARK  157  A    between atoms: _356  and  _357
REMARK  158  A    between atoms: _356  and  _359
REMARK  159  A    between atoms: _359  and  _360
REMARK  160  A    between atoms: _366  and  _368
REMARK  161  A    between atoms: _368  and  _369
REMARK  162  A    between atoms: _368  and  _371
REMARK  163  A    between atoms: _371  and  _372
REMARK  164  A    between atoms: _377  and  _378
REMARK  165  A    between atoms: _380  and  _382
REMARK  166  A    between atoms: _382  and  _383
REMARK  167  A    between atoms: _382  and  _385
REMARK  168  A    between atoms: _385  and  _386
REMARK  169  A    between atoms: _388  and  _390
REMARK  170  A    between atoms: _390  and  _391
REMARK  171  A    between atoms: _394  and  _396
REMARK  172  A    between atoms: _396  and  _397
REMARK  173  A    between atoms: _396  and  _399
REMARK  174  A    between atoms: _402  and  _404
REMARK  175  A    between atoms: _404  and  _405
REMARK  176  A    between atoms: _404  and  _407
REMARK  177  A    between atoms: _407  and  _408
REMARK  178  A    between atoms: _411  and  _413
REMARK  179  A    between atoms: _413  and  _414
REMARK  180  A    between atoms: _413  and  _416
REMARK  181  A    between atoms: _419  and  _421
REMARK  182  A    between atoms: _421  and  _422
REMARK  183  A    between atoms: _421  and  _424
REMARK  184  A    between atoms: _424  and  _425
REMARK  185  A    between atoms: _428  and  _430
REMARK  186  A    between atoms: _430  and  _431
REMARK  187  A    between atoms: _430  and  _433
REMARK  188  A    between atoms: _433  and  _434
REMARK  189  A    between atoms: _437  and  _439
REMARK  190  A    between atoms: _439  and  _440
REMARK  191  A    between atoms: _439  and  _442
REMARK  192  A    between atoms: _442  and  _443
REMARK  193  A    between atoms: _443  and  _444
REMARK  194  A    between atoms: _444  and  _445
REMARK  195  A    between atoms: _445  and  _446
REMARK  196  A    between atoms: _450  and  _452
REMARK  197  A    between atoms: _452  and  _453
REMARK  198  A    between atoms: _452  and  _455
REMARK  199  A    between atoms: _455  and  _456
REMARK  200  A    between atoms: _461  and  _463
REMARK  201  A    between atoms: _463  and  _464
REMARK  202  A    between atoms: _463  and  _466
REMARK  203  A    between atoms: _466  and  _467
REMARK  204  A    between atoms: _477  and  _479
REMARK  205  A    between atoms: _479  and  _480
REMARK  206  A    between atoms: _482  and  _484
REMARK  207  A    between atoms: _484  and  _485
REMARK  208  A    between atoms: _484  and  _487
REMARK  209  A    between atoms: _487  and  _488
REMARK  210  A    between atoms: _491  and  _493
REMARK  211  A    between atoms: _493  and  _494
REMARK  212  A    between atoms: _493  and  _496
REMARK  213  A    between atoms: _496  and  _497
REMARK  214  A    between atoms: _497  and  _498
REMARK  215  A    between atoms: _498  and  _499
REMARK  216  A    between atoms: _499  and  _500
REMARK  217  A    between atoms: _504  and  _506
REMARK  218  A    between atoms: _506  and  _507
REMARK  219  A    between atoms: _506  and  _509
REMARK                            x       y       z     vdW  Elec       q    Type
REMARK                         _______ _______ _______ _____ _____    ______ ____
ROOT
ATOM      1  CA  ILE A   1      47.879 -57.569  64.777  0.00  0.00    +0.133 C 
ENDROOT
BRANCH   1   2
ATOM      2  N   ILE A   1      47.020 -57.599  63.603  0.00  0.00    -0.239 NA
ATOM      3  H   ILE A   1      46.519 -56.736  63.311  0.00  0.00    +0.142 HD
ENDBRANCH   1   2
BRANCH   1   4
ATOM      4  C   ILE A   1      47.099 -57.708  66.074  0.00  0.00    +0.224 C 
ATOM      5  O   ILE A   1      46.006 -57.163  66.212  0.00  0.00    -0.287 OA
ENDBRANCH   1   4
BRANCH   1   6
ATOM      6  CB  ILE A   1      48.713 -56.260  64.825  0.00  0.00    +0.023 C 
ATOM      7  CG2 ILE A   1      49.814 -56.363  65.877  0.00  0.00    +0.002 C 
BRANCH   6   8
ATOM      8  CG1 ILE A   1      49.359 -55.992  63.463  0.00  0.00    +0.002 C 
ATOM      9  CD1 ILE A   1      50.275 -57.106  62.979  0.00  0.00    +0.000 C 
ENDBRANCH   6   8
ENDBRANCH   1   6
TORSDOF 4
REMARK  Name = ../refined-set-2016/1yet/1yet_pocket.pdb
REMARK  219 active torsions:
REMARK  status: ('A' for Active; 'I' for Inactive)
REMARK    1  A    between atoms: _1  and  _3
REMARK    2  A    between atoms: _3  and  _4
REMARK    3  A    between atoms: _3  and  _6
REMARK    4  A    between atoms: _6  and  _7
REMARK    5  A    between atoms: _10  and  _12
REMARK    6  A    between atoms: _12  and  _13
REMARK    7  A    between atoms: _12  and  _15
REMARK    8  A    between atoms: _15  and  _16
REMARK    9  A    between atoms: _19  and  _21
REMARK   10  A    between atoms: _21  and  _22
REMARK   11  A    between atoms: _21  and  _24
REMARK   12  A    between atoms: _24  and  _25
REMARK   13  A    between atoms: _25  and  _26
REMARK   14  A    between atoms: _29  and  _31
REMARK   15  A    between atoms: _31  and  _32
REMARK   16  A    between atoms: _31  and  _34
REMARK   17  A    between atoms: _34  and  _35
REMARK   18  A    between atoms: _38  and  _40
REMARK   19  A    between atoms: _40  and  _41
REMARK   20  A    between atoms: _40  and  _43
REMARK   21  A    between atoms: _43  and  _44
REMARK   22  A    between atoms: _47  and  _49
REMARK   23  A    between atoms: _49  and  _50
REMARK   24  A    between atoms: _49  and  _52
REMARK   25  A    between atoms: _52  and  _53
REMARK   26  A    between atoms: _55  and  _57
REMARK   27  A    between atoms: _57  and  _58
REMARK   28  A    between atoms: _57  and  _60
REMARK   29  A    between atoms: _60  and  _61
REMARK   30  A    between atoms: _66  and  _68
REMARK   31  A    between atoms: _68  and  _69
REMARK   32  A    between atoms: _68  and  _71
REMARK   33  A    between atoms: _71  and  _72
REMARK   34  A    between atoms: _74  and  _76
REMARK   35  A    between atoms: _76  and  _77
REMARK   36  A    between atoms: _76  and  _79
REMARK   37  A    between atoms: _79  and  _80
REMARK   38  A    between atoms: _82  and  _84
REMARK   39  A    between atoms: _84  and  _85
REMARK   40  A    between atoms: _84  and  _87
REMARK   41  A    between atoms: _87  and  _88
REMARK   42  A    between atoms: _91  and  _93
REMARK   43  A    between atoms: _93  and  _94
REMARK   44  A    between atoms: _97  and  _99
REMARK   45  A    between atoms: _99  and  _100
REMARK   46  A    between atoms: _99  and  _102
REMARK   47  A    between atoms: _102  and  _103
REMARK   48  A    between atoms: _106  and  _108
REMARK   49  A    between atoms: _108  and  _109
REMARK   50  A    between atoms: _108  and  _111
REMARK   51  A    between atoms: _111  and  _112
REMARK   52  A    between atoms: _115  and  _117
REMARK   53  A    between atoms: _117  and  _118
REMARK   54  A    between atoms: _117  and  _120
REMARK   55  A    between atoms: _120  and  _121
REMARK   56  A    between atoms: _121  and  _122
REMARK   57  A    between atoms: _122  and  _123
REMARK   58  A    between atoms: _123  and  _124
REMARK   59  A    between atoms: _128  and  _130
REMARK   60  A    between atoms: _130  and  _131
REMARK   61  A    between atoms: _130  and  _133
REMARK   62  A    between atoms: _133  and  _134
REMARK   63  A    between atoms: _137  and  _139
REMARK   64  A    between atoms: _139  and  _140
REMARK   65  A    between atoms: _139  and  _142
REMARK   66  A    between atoms: _142  and  _143
REMARK   67  A    between atoms: _143  and  _144
REMARK   68  A    between atoms: _147  and  _149
REMARK   69  A    between atoms: _149  and  _150
REMARK   70  A    between atoms: _149  and  _152
REMARK   71  A    between atoms: _152  and  _153
REMARK   72  A    between atoms: _156  and  _158
REMARK   73  A    between atoms: _158  and  _159
REMARK   74  A    between atoms: _158  and  _161
REMARK   75  A    between atoms: _161  and  _162
REMARK   76  A    between atoms: _165  and  _167
REMARK   77  A    between atoms: _167  and  _168
REMARK   78  A    between atoms: _167  and  _170
REMARK   79  A    between atoms: _173  and  _175
REMARK   80  A    between atoms: _175  and  _176
REMARK   81  A    between atoms: _175  and  _178
REMARK   82  A    between atoms: _178  and  _179
REMARK   83  A    between atoms: _182  and  _184
REMARK   84  A    between atoms: _184  and  _185
REMARK   85  A    between atoms: _184  and  _187
REMARK   86  A    between atoms: _187  and  _188
REMARK   87  A    between atoms: _191  and  _193
REMARK   88  A    between atoms: _193  and  _194
REMARK   89  A    between atoms: _196  and  _198
REMARK   90  A    between atoms: _198  and  _199
REMARK   91  A    between atoms: _198  and  _201
REMARK   92  A    between atoms: _201  and  _202
REMARK   93  A    between atoms: _205  and  _207
REMARK   94  A    between atoms: _207  and  _208
REMARK   95  A    between atoms: _210  and  _212
REMARK   96  A    between atoms: _212  and  _213
REMARK   97  A    between atoms: _212  and  _215
REMARK   98  A    between atoms: _215  and  _216
REMARK   99  A    between atoms: _216  and  _217
REMARK  100  A    between atoms: _219  and  _221
REMARK  101  A    between atoms: _221  and  _222
REMARK  102  A    between atoms: _221  and  _224
REMARK  103  A    between atoms: _224  and  _225
REMARK  104  A    between atoms: _228  and  _230
REMARK  105  A    between atoms: _230  and  _231
REMARK  106  A    between atoms: _234  and  _236
REMARK  107  A    between atoms: _236  and  _237
REMARK  108  A    between atoms: _236  and  _239
REMARK  109  A    between atoms: _239  and  _240
REMARK  110  A    between atoms: _243  and  _245
REMARK  111  A    between atoms: _245  and  _246
REMARK  112  A    between atoms: _245  and  _248
REMARK  113  A    between atoms: _248  and  _249
REMARK  114  A    between atoms: _252  and  _254
REMARK  115  A    between atoms: _254  and  _255
REMARK  116  A    between atoms: _254  and  _257
REMARK  117  A    between atoms: _257  and  _258
REMARK  118  A    between atoms: _263  and  _265
REMARK  119  A    between atoms: _265  and  _266
REMARK  120  A    between atoms: _265  and  _268
REMARK  121  A    between atoms: _268  and  _269
REMARK  122  A    between atoms: _274  and  _276
REMARK  123  A    between atoms: _276  and  _277
REMARK  124  A    between atoms: _276  and  _279
REMARK  125  A    between atoms: _279  and  _280
REMARK  126  A    between atoms: _283  and  _285
REMARK  127  A    between atoms: _285  and  _286
REMARK  128  A    between atoms: _288  and  _290
REMARK  129  A    between atoms: _290  and  _291
REMARK  130  A    between atoms: _290  and  _293
REMARK  131  A    between atoms: _293  and  _294
REMARK  132  A    between atoms: _297  and  _299
REMARK  133  A    between atoms: _299  and  _300
REMARK  134  A    between atoms: _299  and  _302
REMARK  135  A    between atoms: _302  and  _303
REMARK  136  A    between atoms: _303  and  _304
REMARK  137  A    between atoms: _304  and  _305
REMARK  138  A    between atoms: _305  and  _306
REMARK  139  A    between atoms: _310  and  _312
REMARK  140  A    between atoms: _312  and  _313
REMARK  141  A    between atoms: _312  and  _315
REMARK  142  A    between atoms: _315  and  _316
REMARK  143  A    between atoms: _319  and  _321
REMARK  144  A    between atoms: _321  and  _322
REMARK  145  A    between atoms: _324  and  _326
REMARK  146  A    between atoms: _326  and  _327
REMARK  147  A    between atoms: _326  and  _329
REMARK  148  A    between atoms: _329  and  _330
REMARK  149  A    between atoms: _336  and  _338
REMARK  150  A    between atoms: _338  and  _339
REMARK  151  A    between atoms: _341  and  _343
REMARK  152  A    between atoms: _343  and  _344
REMARK  153  A    between atoms: _343  and  _346
REMARK  154  A    between atoms: _349  and  _351
REMARK  155  A    between atoms: _351  and  _352
REMARK  156  A    between atoms: _354  and  _356
REMARK  157  A    between atoms: _356  and  _357
REMARK  158  A    between atoms: _356  and  _359
REMARK  159  A    between atoms: _359  and  _360
REMARK  160  A    between atoms: _366  and  _368
REMARK  161  A    between atoms: _368  and  _369
REMARK  162  A    between atoms: _368  and  _371
REMARK  163  A    between atoms: _371  and  _372
REMARK  164  A    between atoms: _377  and  _378
REMARK  165  A    between atoms: _380  and  _382
REMARK  166  A    between atoms: _382  and  _383
REMARK  167  A    between atoms: _382  and  _385
REMARK  168  A    between atoms: _385  and  _386
REMARK  169  A    between atoms: _388  and  _390
REMARK  170  A    between atoms: _390  and  _391
REMARK  171  A    between atoms: _394  and  _396
REMARK  172  A    between atoms: _396  and  _397
REMARK  173  A    between atoms: _396  and  _399
REMARK  174  A    between atoms: _402  and  _404
REMARK  175  A    between atoms: _404  and  _405
REMARK  176  A    between atoms: _404  and  _407
REMARK  177  A    between atoms: _407  and  _408
REMARK  178  A    between atoms: _411  and  _413
REMARK  179  A    between atoms: _413  and  _414
REMARK  180  A    between atoms: _413  and  _416
REMARK  181  A    between atoms: _419  and  _421
REMARK  182  A    between atoms: _421  and  _422
REMARK  183  A    between atoms: _421  and  _424
REMARK  184  A    between atoms: _424  and  _425
REMARK  185  A    between atoms: _428  and  _430
REMARK  186  A    between atoms: _430  and  _431
REMARK  187  A    between atoms: _430  and  _433
REMARK  188  A    between atoms: _433  and  _434
REMARK  189  A    between atoms: _437  and  _439
REMARK  190  A    between atoms: _439  and  _440
REMARK  191  A    between atoms: _439  and  _442
REMARK  192  A    between atoms: _442  and  _443
REMARK  193  A    between atoms: _443  and  _444
REMARK  194  A    between atoms: _444  and  _445
REMARK  195  A    between atoms: _445  and  _446
REMARK  196  A    between atoms: _450  and  _452
REMARK  197  A    between atoms: _452  and  _453
REMARK  198  A    between atoms: _452  and  _455
REMARK  199  A    between atoms: _455  and  _456
REMARK  200  A    between atoms: _461  and  _463
REMARK  201  A    between atoms: _463  and  _464
REMARK  202  A    between atoms: _463  and  _466
REMARK  203  A    between atoms: _466  and  _467
REMARK  204  A    between atoms: _477  and  _479
REMARK  205  A    between atoms: _479  and  _480
REMARK  206  A    between atoms: _482  and  _484
REMARK  207  A    between atoms: _484  and  _485
REMARK  208  A    between atoms: _484  and  _487
REMARK  209  A    between atoms: _487  and  _488
REMARK  210  A    between atoms: _491  and  _493
REMARK  211  A    between atoms: _493  and  _494
REMARK  212  A    between atoms: _493  and  _496
REMARK  213  A    between atoms: _496  and  _497
REMARK  214  A    between atoms: _497  and  _498
REMARK  215  A    between atoms: _498  and  _499
REMARK  216  A    between atoms: _499  and  _500
REMARK  217  A    between atoms: _504  and  _506
REMARK  218  A    between atoms: _506  and  _507
REMARK  219  A    between atoms: _506  and  _509
REMARK                            x       y       z     vdW  Elec       q    Type
REMARK                         _______ _______ _______ _____ _____    ______ ____
ROOT
ATOM      1  CG  LYS A   1      44.281 -54.778  68.913  0.00  0.00    -0.000 C 
ENDROOT
BRANCH   1   2
ATOM      2  CB  LYS A   1      44.285 -55.413  70.316  0.00  0.00    +0.025 C 
BRANCH   2   3
ATOM      3  CA  LYS A   1      45.637 -56.042  70.657  0.00  0.00    +0.133 C 
BRANCH   3   4
ATOM      4  N   LYS A   1      45.861 -57.239  69.860  0.00  0.00    -0.239 NA
ATOM      5  H   LYS A   1      45.187 -58.028  69.929  0.00  0.00    +0.142 HD
ENDBRANCH   3   4
BRANCH   3   6
ATOM      6  C   LYS A   1      45.714 -56.517  72.106  0.00  0.00    +0.224 C 
ATOM      7  O   LYS A   1      45.191 -57.588  72.427  0.00  0.00    -0.287 OA
ENDBRANCH   3   6
ENDBRANCH   2   3
ENDBRANCH   1   2
BRANCH   1   8
ATOM      8  CD  LYS A   1      42.998 -54.015  68.625  0.00  0.00    -0.024 C 
BRANCH   8   9
ATOM      9  CE  LYS A   1      42.914 -52.716  69.415  0.00  0.00    -0.086 C 
BRANCH   9  10
ATOM     10  NZ  LYS A   1      43.920 -51.677  69.027  0.00  0.00    +0.380 N 
ATOM     11  HZ1 LYS A   1      43.787 -50.830  69.616  0.00  0.00    -0.089 HD
ATOM     12  HZ2 LYS A   1      44.879 -52.054  69.171  0.00  0.00    -0.089 HD
ATOM     13  HZ3 LYS A   1      43.791 -51.428  68.026  0.00  0.00    -0.089 HD
ENDBRANCH   9  10
ENDBRANCH   8   9
ENDBRANCH   1   8
TORSDOF 7
REMARK  Name = ../refined-set-2016/1yet/1yet_pocket.pdb
REMARK  219 active torsions:
REMARK  status: ('A' for Active; 'I' for Inactive)
REMARK    1  A    between atoms: _1  and  _3
REMARK    2  A    between atoms: _3  and  _4
REMARK    3  A    between atoms: _3  and  _6
REMARK    4  A    between atoms: _6  and  _7
REMARK    5  A    between atoms: _10  and  _12
REMARK    6  A    between atoms: _12  and  _13
REMARK    7  A    between atoms: _12  and  _15
REMARK    8  A    between atoms: _15  and  _16
REMARK    9  A    between atoms: _19  and  _21
REMARK   10  A    between atoms: _21  and  _22
REMARK   11  A    between atoms: _21  and  _24
REMARK   12  A    between atoms: _24  and  _25
REMARK   13  A    between atoms: _25  and  _26
REMARK   14  A    between atoms: _29  and  _31
REMARK   15  A    between atoms: _31  and  _32
REMARK   16  A    between atoms: _31  and  _34
REMARK   17  A    between atoms: _34  and  _35
REMARK   18  A    between atoms: _38  and  _40
REMARK   19  A    between atoms: _40  and  _41
REMARK   20  A    between atoms: _40  and  _43
REMARK   21  A    between atoms: _43  and  _44
REMARK   22  A    between atoms: _47  and  _49
REMARK   23  A    between atoms: _49  and  _50
REMARK   24  A    between atoms: _49  and  _52
REMARK   25  A    between atoms: _52  and  _53
REMARK   26  A    between atoms: _55  and  _57
REMARK   27  A    between atoms: _57  and  _58
REMARK   28  A    between atoms: _57  and  _60
REMARK   29  A    between atoms: _60  and  _61
REMARK   30  A    between atoms: _66  and  _68
REMARK   31  A    between atoms: _68  and  _69
REMARK   32  A    between atoms: _68  and  _71
REMARK   33  A    between atoms: _71  and  _72
REMARK   34  A    between atoms: _74  and  _76
REMARK   35  A    between atoms: _76  and  _77
REMARK   36  A    between atoms: _76  and  _79
REMARK   37  A    between atoms: _79  and  _80
REMARK   38  A    between atoms: _82  and  _84
REMARK   39  A    between atoms: _84  and  _85
REMARK   40  A    between atoms: _84  and  _87
REMARK   41  A    between atoms: _87  and  _88
REMARK   42  A    between atoms: _91  and  _93
REMARK   43  A    between atoms: _93  and  _94
REMARK   44  A    between atoms: _97  and  _99
REMARK   45  A    between atoms: _99  and  _100
REMARK   46  A    between atoms: _99  and  _102
REMARK   47  A    between atoms: _102  and  _103
REMARK   48  A    between atoms: _106  and  _108
REMARK   49  A    between atoms: _108  and  _109
REMARK   50  A    between atoms: _108  and  _111
REMARK   51  A    between atoms: _111  and  _112
REMARK   52  A    between atoms: _115  and  _117
REMARK   53  A    between atoms: _117  and  _118
REMARK   54  A    between atoms: _117  and  _120
REMARK   55  A    between atoms: _120  and  _121
REMARK   56  A    between atoms: _121  and  _122
REMARK   57  A    between atoms: _122  and  _123
REMARK   58  A    between atoms: _123  and  _124
REMARK   59  A    between atoms: _128  and  _130
REMARK   60  A    between atoms: _130  and  _131
REMARK   61  A    between atoms: _130  and  _133
REMARK   62  A    between atoms: _133  and  _134
REMARK   63  A    between atoms: _137  and  _139
REMARK   64  A    between atoms: _139  and  _140
REMARK   65  A    between atoms: _139  and  _142
REMARK   66  A    between atoms: _142  and  _143
REMARK   67  A    between atoms: _143  and  _144
REMARK   68  A    between atoms: _147  and  _149
REMARK   69  A    between atoms: _149  and  _150
REMARK   70  A    between atoms: _149  and  _152
REMARK   71  A    between atoms: _152  and  _153
REMARK   72  A    between atoms: _156  and  _158
REMARK   73  A    between atoms: _158  and  _159
REMARK   74  A    between atoms: _158  and  _161
REMARK   75  A    between atoms: _161  and  _162
REMARK   76  A    between atoms: _165  and  _167
REMARK   77  A    between atoms: _167  and  _168
REMARK   78  A    between atoms: _167  and  _170
REMARK   79  A    between atoms: _173  and  _175
REMARK   80  A    between atoms: _175  and  _176
REMARK   81  A    between atoms: _175  and  _178
REMARK   82  A    between atoms: _178  and  _179
REMARK   83  A    between atoms: _182  and  _184
REMARK   84  A    between atoms: _184  and  _185
REMARK   85  A    between atoms: _184  and  _187
REMARK   86  A    between atoms: _187  and  _188
REMARK   87  A    between atoms: _191  and  _193
REMARK   88  A    between atoms: _193  and  _194
REMARK   89  A    between atoms: _196  and  _198
REMARK   90  A    between atoms: _198  and  _199
REMARK   91  A    between atoms: _198  and  _201
REMARK   92  A    between atoms: _201  and  _202
REMARK   93  A    between atoms: _205  and  _207
REMARK   94  A    between atoms: _207  and  _208
REMARK   95  A    between atoms: _210  and  _212
REMARK   96  A    between atoms: _212  and  _213
REMARK   97  A    between atoms: _212  and  _215
REMARK   98  A    between atoms: _215  and  _216
REMARK   99  A    between atoms: _216  and  _217
REMARK  100  A    between atoms: _219  and  _221
REMARK  101  A    between atoms: _221  and  _222
REMARK  102  A    between atoms: _221  and  _224
REMARK  103  A    between atoms: _224  and  _225
REMARK  104  A    between atoms: _228  and  _230
REMARK  105  A    between atoms: _230  and  _231
REMARK  106  A    between atoms: _234  and  _236
REMARK  107  A    between atoms: _236  and  _237
REMARK  108  A    between atoms: _236  and  _239
REMARK  109  A    between atoms: _239  and  _240
REMARK  110  A    between atoms: _243  and  _245
REMARK  111  A    between atoms: _245  and  _246
REMARK  112  A    between atoms: _245  and  _248
REMARK  113  A    between atoms: _248  and  _249
REMARK  114  A    between atoms: _252  and  _254
REMARK  115  A    between atoms: _254  and  _255
REMARK  116  A    between atoms: _254  and  _257
REMARK  117  A    between atoms: _257  and  _258
REMARK  118  A    between atoms: _263  and  _265
REMARK  119  A    between atoms: _265  and  _266
REMARK  120  A    between atoms: _265  and  _268
REMARK  121  A    between atoms: _268  and  _269
REMARK  122  A    between atoms: _274  and  _276
REMARK  123  A    between atoms: _276  and  _277
REMARK  124  A    between atoms: _276  and  _279
REMARK  125  A    between atoms: _279  and  _280
REMARK  126  A    between atoms: _283  and  _285
REMARK  127  A    between atoms: _285  and  _286
REMARK  128  A    between atoms: _288  and  _290
REMARK  129  A    between atoms: _290  and  _291
REMARK  130  A    between atoms: _290  and  _293
REMARK  131  A    between atoms: _293  and  _294
REMARK  132  A    between atoms: _297  and  _299
REMARK  133  A    between atoms: _299  and  _300
REMARK  134  A    between atoms: _299  and  _302
REMARK  135  A    between atoms: _302  and  _303
REMARK  136  A    between atoms: _303  and  _304
REMARK  137  A    between atoms: _304  and  _305
REMARK  138  A    between atoms: _305  and  _306
REMARK  139  A    between atoms: _310  and  _312
REMARK  140  A    between atoms: _312  and  _313
REMARK  141  A    between atoms: _312  and  _315
REMARK  142  A    between atoms: _315  and  _316
REMARK  143  A    between atoms: _319  and  _321
REMARK  144  A    between atoms: _321  and  _322
REMARK  145  A    between atoms: _324  and  _326
REMARK  146  A    between atoms: _326  and  _327
REMARK  147  A    between atoms: _326  and  _329
REMARK  148  A    between atoms: _329  and  _330
REMARK  149  A    between atoms: _336  and  _338
REMARK  150  A    between atoms: _338  and  _339
REMARK  151  A    between atoms: _341  and  _343
REMARK  152  A    between atoms: _343  and  _344
REMARK  153  A    between atoms: _343  and  _346
REMARK  154  A    between atoms: _349  and  _351
REMARK  155  A    between atoms: _351  and  _352
REMARK  156  A    between atoms: _354  and  _356
REMARK  157  A    between atoms: _356  and  _357
REMARK  158  A    between atoms: _356  and  _359
REMARK  159  A    between atoms: _359  and  _360
REMARK  160  A    between atoms: _366  and  _368
REMARK  161  A    between atoms: _368  and  _369
REMARK  162  A    between atoms: _368  and  _371
REMARK  163  A    between atoms: _371  and  _372
REMARK  164  A    between atoms: _377  and  _378
REMARK  165  A    between atoms: _380  and  _382
REMARK  166  A    between atoms: _382  and  _383
REMARK  167  A    between atoms: _382  and  _385
REMARK  168  A    between atoms: _385  and  _386
REMARK  169  A    between atoms: _388  and  _390
REMARK  170  A    between atoms: _390  and  _391
REMARK  171  A    between atoms: _394  and  _396
REMARK  172  A    between atoms: _396  and  _397
REMARK  173  A    between atoms: _396  and  _399
REMARK  174  A    between atoms: _402  and  _404
REMARK  175  A    between atoms: _404  and  _405
REMARK  176  A    between atoms: _404  and  _407
REMARK  177  A    between atoms: _407  and  _408
REMARK  178  A    between atoms: _411  and  _413
REMARK  179  A    between atoms: _413  and  _414
REMARK  180  A    between atoms: _413  and  _416
REMARK  181  A    between atoms: _419  and  _421
REMARK  182  A    between atoms: _421  and  _422
REMARK  183  A    between atoms: _421  and  _424
REMARK  184  A    between atoms: _424  and  _425
REMARK  185  A    between atoms: _428  and  _430
REMARK  186  A    between atoms: _430  and  _431
REMARK  187  A    between atoms: _430  and  _433
REMARK  188  A    between atoms: _433  and  _434
REMARK  189  A    between atoms: _437  and  _439
REMARK  190  A    between atoms: _439  and  _440
REMARK  191  A    between atoms: _439  and  _442
REMARK  192  A    between atoms: _442  and  _443
REMARK  193  A    between atoms: _443  and  _444
REMARK  194  A    between atoms: _444  and  _445
REMARK  195  A    between atoms: _445  and  _446
REMARK  196  A    between atoms: _450  and  _452
REMARK  197  A    between atoms: _452  and  _453
REMARK  198  A    between atoms: _452  and  _455
REMARK  199  A    between atoms: _455  and  _456
REMARK  200  A    between atoms: _461  and  _463
REMARK  201  A    between atoms: _463  and  _464
REMARK  202  A    between atoms: _463  and  _466
REMARK  203  A    between atoms: _466  and  _467
REMARK  204  A    between atoms: _477  and  _479
REMARK  205  A    between atoms: _479  and  _480
REMARK  206  A    between atoms: _482  and  _484
REMARK  207  A    between atoms: _484  and  _485
REMARK  208  A    between atoms: _484  and  _487
REMARK  209  A    between atoms: _487  and  _488
REMARK  210  A    between atoms: _491  and  _493
REMARK  211  A    between atoms: _493  and  _494
REMARK  212  A    between atoms: _493  and  _496
REMARK  213  A    between atoms: _496  and  _497
REMARK  214  A    between atoms: _497  and  _498
REMARK  215  A    between atoms: _498  and  _499
REMARK  216  A    between atoms: _499  and  _500
REMARK  217  A    between atoms: _504  and  _506
REMARK  218  A    between atoms: _506  and  _507
REMARK  219  A    between atoms: _506  and  _509
REMARK                            x       y       z     vdW  Elec       q    Type
REMARK                         _______ _______ _______ _____ _____    ______ ____
ROOT
ATOM      1  CA  ILE A   1      34.280 -52.364  75.324  0.00  0.00    +0.145 C 
ENDROOT
BRANCH   1   2
ATOM      2  C   ILE A   1      35.317 -51.283  74.976  0.00  0.00    +0.238 C 
ATOM      3  N   GLY A   2      34.913 -50.017  74.993  0.00  0.00    -0.297 N 
ATOM      4  H   GLY A   2      33.928 -49.794  75.241  0.00  0.00    +0.150 HD
ATOM      5  O   ILE A   1      36.491 -51.599  74.738  0.00  0.00    -0.274 OA
BRANCH   3   6
ATOM      6  CA  GLY A   2      35.836 -48.939  74.668  0.00  0.00    +0.163 C 
BRANCH   6   7
ATOM      7  C   GLY A   2      37.049 -48.833  75.579  0.00  0.00    +0.229 C 
ATOM      8  O   GLY A   2      38.148 -48.494  75.128  0.00  0.00    -0.286 OA
ENDBRANCH   6   7
ENDBRANCH   3   6
ENDBRANCH   1   2
BRANCH   1   9
ATOM      9  N   ILE A   1      33.375 -52.136  76.454  0.00  0.00    -0.238 NA
ATOM     10  H   ILE A   1      32.367 -52.368  76.343  0.00  0.00    +0.142 HD
ENDBRANCH   1   9
BRANCH   1  11
ATOM     11  CB  ILE A   1      33.489 -52.818  74.061  0.00  0.00    +0.025 C 
ATOM     12  CG2 ILE A   1      32.674 -51.663  73.489  0.00  0.00    +0.002 C 
BRANCH  11  13
ATOM     13  CG1 ILE A   1      34.446 -53.430  73.031  0.00  0.00    +0.002 C 
ATOM     14  CD1 ILE A   1      33.760 -54.228  71.958  0.00  0.00    +0.000 C 
ENDBRANCH  11  13
ENDBRANCH   1  11
TORSDOF 6
REMARK  Name = ../refined-set-2016/1yet/1yet_pocket.pdb
REMARK  219 active torsions:
REMARK  status: ('A' for Active; 'I' for Inactive)
REMARK    1  A    between atoms: _1  and  _3
REMARK    2  A    between atoms: _3  and  _4
REMARK    3  A    between atoms: _3  and  _6
REMARK    4  A    between atoms: _6  and  _7
REMARK    5  A    between atoms: _10  and  _12
REMARK    6  A    between atoms: _12  and  _13
REMARK    7  A    between atoms: _12  and  _15
REMARK    8  A    between atoms: _15  and  _16
REMARK    9  A    between atoms: _19  and  _21
REMARK   10  A    between atoms: _21  and  _22
REMARK   11  A    between atoms: _21  and  _24
REMARK   12  A    between atoms: _24  and  _25
REMARK   13  A    between atoms: _25  and  _26
REMARK   14  A    between atoms: _29  and  _31
REMARK   15  A    between atoms: _31  and  _32
REMARK   16  A    between atoms: _31  and  _34
REMARK   17  A    between atoms: _34  and  _35
REMARK   18  A    between atoms: _38  and  _40
REMARK   19  A    between atoms: _40  and  _41
REMARK   20  A    between atoms: _40  and  _43
REMARK   21  A    between atoms: _43  and  _44
REMARK   22  A    between atoms: _47  and  _49
REMARK   23  A    between atoms: _49  and  _50
REMARK   24  A    between atoms: _49  and  _52
REMARK   25  A    between atoms: _52  and  _53
REMARK   26  A    between atoms: _55  and  _57
REMARK   27  A    between atoms: _57  and  _58
REMARK   28  A    between atoms: _57  and  _60
REMARK   29  A    between atoms: _60  and  _61
REMARK   30  A    between atoms: _66  and  _68
REMARK   31  A    between atoms: _68  and  _69
REMARK   32  A    between atoms: _68  and  _71
REMARK   33  A    between atoms: _71  and  _72
REMARK   34  A    between atoms: _74  and  _76
REMARK   35  A    between atoms: _76  and  _77
REMARK   36  A    between atoms: _76  and  _79
REMARK   37  A    between atoms: _79  and  _80
REMARK   38  A    between atoms: _82  and  _84
REMARK   39  A    between atoms: _84  and  _85
REMARK   40  A    between atoms: _84  and  _87
REMARK   41  A    between atoms: _87  and  _88
REMARK   42  A    between atoms: _91  and  _93
REMARK   43  A    between atoms: _93  and  _94
REMARK   44  A    between atoms: _97  and  _99
REMARK   45  A    between atoms: _99  and  _100
REMARK   46  A    between atoms: _99  and  _102
REMARK   47  A    between atoms: _102  and  _103
REMARK   48  A    between atoms: _106  and  _108
REMARK   49  A    between atoms: _108  and  _109
REMARK   50  A    between atoms: _108  and  _111
REMARK   51  A    between atoms: _111  and  _112
REMARK   52  A    between atoms: _115  and  _117
REMARK   53  A    between atoms: _117  and  _118
REMARK   54  A    between atoms: _117  and  _120
REMARK   55  A    between atoms: _120  and  _121
REMARK   56  A    between atoms: _121  and  _122
REMARK   57  A    between atoms: _122  and  _123
REMARK   58  A    between atoms: _123  and  _124
REMARK   59  A    between atoms: _128  and  _130
REMARK   60  A    between atoms: _130  and  _131
REMARK   61  A    between atoms: _130  and  _133
REMARK   62  A    between atoms: _133  and  _134
REMARK   63  A    between atoms: _137  and  _139
REMARK   64  A    between atoms: _139  and  _140
REMARK   65  A    between atoms: _139  and  _142
REMARK   66  A    between atoms: _142  and  _143
REMARK   67  A    between atoms: _143  and  _144
REMARK   68  A    between atoms: _147  and  _149
REMARK   69  A    between atoms: _149  and  _150
REMARK   70  A    between atoms: _149  and  _152
REMARK   71  A    between atoms: _152  and  _153
REMARK   72  A    between atoms: _156  and  _158
REMARK   73  A    between atoms: _158  and  _159
REMARK   74  A    between atoms: _158  and  _161
REMARK   75  A    between atoms: _161  and  _162
REMARK   76  A    between atoms: _165  and  _167
REMARK   77  A    between atoms: _167  and  _168
REMARK   78  A    between atoms: _167  and  _170
REMARK   79  A    between atoms: _173  and  _175
REMARK   80  A    between atoms: _175  and  _176
REMARK   81  A    between atoms: _175  and  _178
REMARK   82  A    between atoms: _178  and  _179
REMARK   83  A    between atoms: _182  and  _184
REMARK   84  A    between atoms: _184  and  _185
REMARK   85  A    between atoms: _184  and  _187
REMARK   86  A    between atoms: _187  and  _188
REMARK   87  A    between atoms: _191  and  _193
REMARK   88  A    between atoms: _193  and  _194
REMARK   89  A    between atoms: _196  and  _198
REMARK   90  A    between atoms: _198  and  _199
REMARK   91  A    between atoms: _198  and  _201
REMARK   92  A    between atoms: _201  and  _202
REMARK   93  A    between atoms: _205  and  _207
REMARK   94  A    between atoms: _207  and  _208
REMARK   95  A    between atoms: _210  and  _212
REMARK   96  A    between atoms: _212  and  _213
REMARK   97  A    between atoms: _212  and  _215
REMARK   98  A    between atoms: _215  and  _216
REMARK   99  A    between atoms: _216  and  _217
REMARK  100  A    between atoms: _219  and  _221
REMARK  101  A    between atoms: _221  and  _222
REMARK  102  A    between atoms: _221  and  _224
REMARK  103  A    between atoms: _224  and  _225
REMARK  104  A    between atoms: _228  and  _230
REMARK  105  A    between atoms: _230  and  _231
REMARK  106  A    between atoms: _234  and  _236
REMARK  107  A    between atoms: _236  and  _237
REMARK  108  A    between atoms: _236  and  _239
REMARK  109  A    between atoms: _239  and  _240
REMARK  110  A    between atoms: _243  and  _245
REMARK  111  A    between atoms: _245  and  _246
REMARK  112  A    between atoms: _245  and  _248
REMARK  113  A    between atoms: _248  and  _249
REMARK  114  A    between atoms: _252  and  _254
REMARK  115  A    between atoms: _254  and  _255
REMARK  116  A    between atoms: _254  and  _257
REMARK  117  A    between atoms: _257  and  _258
REMARK  118  A    between atoms: _263  and  _265
REMARK  119  A    between atoms: _265  and  _266
REMARK  120  A    between atoms: _265  and  _268
REMARK  121  A    between atoms: _268  and  _269
REMARK  122  A    between atoms: _274  and  _276
REMARK  123  A    between atoms: _276  and  _277
REMARK  124  A    between atoms: _276  and  _279
REMARK  125  A    between atoms: _279  and  _280
REMARK  126  A    between atoms: _283  and  _285
REMARK  127  A    between atoms: _285  and  _286
REMARK  128  A    between atoms: _288  and  _290
REMARK  129  A    between atoms: _290  and  _291
REMARK  130  A    between atoms: _290  and  _293
REMARK  131  A    between atoms: _293  and  _294
REMARK  132  A    between atoms: _297  and  _299
REMARK  133  A    between atoms: _299  and  _300
REMARK  134  A    between atoms: _299  and  _302
REMARK  135  A    between atoms: _302  and  _303
REMARK  136  A    between atoms: _303  and  _304
REMARK  137  A    between atoms: _304  and  _305
REMARK  138  A    between atoms: _305  and  _306
REMARK  139  A    between atoms: _310  and  _312
REMARK  140  A    between atoms: _312  and  _313
REMARK  141  A    between atoms: _312  and  _315
REMARK  142  A    between atoms: _315  and  _316
REMARK  143  A    between atoms: _319  and  _321
REMARK  144  A    between atoms: _321  and  _322
REMARK  145  A    between atoms: _324  and  _326
REMARK  146  A    between atoms: _326  and  _327
REMARK  147  A    between atoms: _326  and  _329
REMARK  148  A    between atoms: _329  and  _330
REMARK  149  A    between atoms: _336  and  _338
REMARK  150  A    between atoms: _338  and  _339
REMARK  151  A    between atoms: _341  and  _343
REMARK  152  A    between atoms: _343  and  _344
REMARK  153  A    between atoms: _343  and  _346
REMARK  154  A    between atoms: _349  and  _351
REMARK  155  A    between atoms: _351  and  _352
REMARK  156  A    between atoms: _354  and  _356
REMARK  157  A    between atoms: _356  and  _357
REMARK  158  A    between atoms: _356  and  _359
REMARK  159  A    between atoms: _359  and  _360
REMARK  160  A    between atoms: _366  and  _368
REMARK  161  A    between atoms: _368  and  _369
REMARK  162  A    between atoms: _368  and  _371
REMARK  163  A    between atoms: _371  and  _372
REMARK  164  A    between atoms: _377  and  _378
REMARK  165  A    between atoms: _380  and  _382
REMARK  166  A    between atoms: _382  and  _383
REMARK  167  A    between atoms: _382  and  _385
REMARK  168  A    between atoms: _385  and  _386
REMARK  169  A    between atoms: _388  and  _390
REMARK  170  A    between atoms: _390  and  _391
REMARK  171  A    between atoms: _394  and  _396
REMARK  172  A    between atoms: _396  and  _397
REMARK  173  A    between atoms: _396  and  _399
REMARK  174  A    between atoms: _402  and  _404
REMARK  175  A    between atoms: _404  and  _405
REMARK  176  A    between atoms: _404  and  _407
REMARK  177  A    between atoms: _407  and  _408
REMARK  178  A    between atoms: _411  and  _413
REMARK  179  A    between atoms: _413  and  _414
REMARK  180  A    between atoms: _413  and  _416
REMARK  181  A    between atoms: _419  and  _421
REMARK  182  A    between atoms: _421  and  _422
REMARK  183  A    between atoms: _421  and  _424
REMARK  184  A    between atoms: _424  and  _425
REMARK  185  A    between atoms: _428  and  _430
REMARK  186  A    between atoms: _430  and  _431
REMARK  187  A    between atoms: _430  and  _433
REMARK  188  A    between atoms: _433  and  _434
REMARK  189  A    between atoms: _437  and  _439
REMARK  190  A    between atoms: _439  and  _440
REMARK  191  A    between atoms: _439  and  _442
REMARK  192  A    between atoms: _442  and  _443
REMARK  193  A    between atoms: _443  and  _444
REMARK  194  A    between atoms: _444  and  _445
REMARK  195  A    between atoms: _445  and  _446
REMARK  196  A    between atoms: _450  and  _452
REMARK  197  A    between atoms: _452  and  _453
REMARK  198  A    between atoms: _452  and  _455
REMARK  199  A    between atoms: _455  and  _456
REMARK  200  A    between atoms: _461  and  _463
REMARK  201  A    between atoms: _463  and  _464
REMARK  202  A    between atoms: _463  and  _466
REMARK  203  A    between atoms: _466  and  _467
REMARK  204  A    between atoms: _477  and  _479
REMARK  205  A    between atoms: _479  and  _480
REMARK  206  A    between atoms: _482  and  _484
REMARK  207  A    between atoms: _484  and  _485
REMARK  208  A    between atoms: _484  and  _487
REMARK  209  A    between atoms: _487  and  _488
REMARK  210  A    between atoms: _491  and  _493
REMARK  211  A    between atoms: _493  and  _494
REMARK  212  A    between atoms: _493  and  _496
REMARK  213  A    between atoms: _496  and  _497
REMARK  214  A    between atoms: _497  and  _498
REMARK  215  A    between atoms: _498  and  _499
REMARK  216  A    between atoms: _499  and  _500
REMARK  217  A    between atoms: _504  and  _506
REMARK  218  A    between atoms: _506  and  _507
REMARK  219  A    between atoms: _506  and  _509
REMARK                            x       y       z     vdW  Elec       q    Type
REMARK                         _______ _______ _______ _____ _____    ______ ____
ROOT
ATOM      1  CA  PHE A   5      35.180 -51.029  66.800  0.00  0.00    +0.153 C 
ENDROOT
BRANCH   1   2
ATOM      2  C   PHE A   5      34.392 -52.318  66.582  0.00  0.00    +0.241 C 
ATOM      3  N   TYR A   6      34.848 -53.415  67.180  0.00  0.00    -0.297 N 
ATOM      4  H   TYR A   6      35.698 -53.359  67.776  0.00  0.00    +0.150 HD
ATOM      5  O   PHE A   5      33.363 -52.304  65.916  0.00  0.00    -0.273 OA
BRANCH   3   6
ATOM      6  CA  TYR A   6      34.174 -54.692  67.011  0.00  0.00    +0.153 C 
BRANCH   6   7
ATOM      7  C   TYR A   6      32.757 -54.765  67.561  0.00  0.00    +0.241 C 
ATOM      8  N   SER A   7      32.363 -53.768  68.357  0.00  0.00    -0.295 N 
ATOM      9  H   SER A   7      33.036 -53.019  68.617  0.00  0.00    +0.150 HD
ATOM     10  O   TYR A   6      31.997 -55.680  67.206  0.00  0.00    -0.273 OA
BRANCH   8  11
ATOM     11  CA  SER A   7      30.993 -53.721  68.867  0.00  0.00    +0.178 C 
BRANCH  11  12
ATOM     12  C   SER A   7      30.028 -53.511  67.693  0.00  0.00    +0.243 C 
ATOM     13  O   SER A   7      28.816 -53.681  67.844  0.00  0.00    -0.273 OA
ATOM     14  N   ALA A   8      30.557 -53.127  66.530  0.00  0.00    -0.298 N 
ATOM     15  H   ALA A   8      31.582 -52.963  66.464  0.00  0.00    +0.150 HD
BRANCH  14  16
ATOM     16  CA  ALA A   8      29.723 -52.933  65.350  0.00  0.00    +0.137 C 
ATOM     17  CB  ALA A   8      30.573 -52.530  64.170  0.00  0.00    +0.030 C 
BRANCH  16  18
ATOM     18  C   ALA A   8      28.993 -54.241  65.052  0.00  0.00    +0.227 C 
ATOM     19  O   ALA A   8      27.834 -54.242  64.617  0.00  0.00    -0.286 OA
ENDBRANCH  16  18
ENDBRANCH  14  16
ENDBRANCH  11  12
BRANCH  11  20
ATOM     20  CB  SER A   7      30.791 -52.597  69.890  0.00  0.00    +0.166 C 
BRANCH  20  21
ATOM     21  OG  SER A   7      30.870 -51.306  69.301  0.00  0.00    -0.380 OA
ATOM     22  H   SER A   7      31.762 -51.187  68.888  0.00  0.00    +0.211 HD
ENDBRANCH  20  21
ENDBRANCH  11  20
ENDBRANCH   8  11
ENDBRANCH   6   7
BRANCH   6  23
ATOM     23  CB  TYR A   6      35.058 -55.848  67.491  0.00  0.00    +0.055 C 
BRANCH  23  24
ATOM     24  CG  TYR A   6      36.356 -55.917  66.710  0.00  0.00    -0.020 A 
ATOM     25  CD2 TYR A   6      37.547 -55.409  67.242  0.00  0.00    -0.001 A 
ATOM     26  CE2 TYR A   6      38.726 -55.389  66.482  0.00  0.00    +0.036 A 
ATOM     27  CZ  TYR A   6      38.708 -55.881  65.179  0.00  0.00    +0.134 A 
ATOM     28  CE1 TYR A   6      37.546 -56.390  64.636  0.00  0.00    +0.036 A 
ATOM     29  CD1 TYR A   6      36.377 -56.411  65.403  0.00  0.00    -0.001 A 
BRANCH  27  30
ATOM     30  OH  TYR A   6      39.849 -55.866  64.417  0.00  0.00    -0.506 OA
ATOM     31  HH  TYR A   6      40.163 -54.933  64.314  0.00  0.00    +0.292 HD
ENDBRANCH  27  30
ENDBRANCH  23  24
ENDBRANCH   6  23
ENDBRANCH   3   6
ENDBRANCH   1   2
BRANCH   1  34
ATOM     32  C   GLY A   4      34.824 -50.962  69.198  0.00  0.00    +0.243 C 
ATOM     33  O   GLY A   4      33.605 -51.037  69.031  0.00  0.00    -0.273 OA
ATOM     34  N   PHE A   5      35.679 -50.940  68.182  0.00  0.00    -0.297 N 
ATOM     35  H   PHE A   5      36.700 -50.860  68.363  0.00  0.00    +0.150 HD
BRANCH  32  36
ATOM     36  CA  GLY A   4      35.379 -50.874  70.601  0.00  0.00    +0.176 C 
BRANCH  36  38
ATOM     37  C   VAL A   3      37.112 -52.611  70.516  0.00  0.00    +0.241 C 
ATOM     38  N   GLY A   4      36.723 -51.373  70.829  0.00  0.00    -0.295 N 
ATOM     39  H   GLY A   4      37.420 -50.732  71.259  0.00  0.00    +0.150 HD
ATOM     40  O   VAL A   3      36.394 -53.423  69.916  0.00  0.00    -0.273 OA
BRANCH  37  41
ATOM     41  CA  VAL A   3      38.568 -52.951  70.869  0.00  0.00    +0.149 C 
BRANCH  41  43
ATOM     42  C   GLY A   2      40.162 -51.372  71.855  0.00  0.00    +0.243 C 
ATOM     43  N   VAL A   3      39.055 -52.099  71.962  0.00  0.00    -0.297 N 
ATOM     44  H   VAL A   3      38.515 -52.064  72.850  0.00  0.00    +0.150 HD
ATOM     45  O   GLY A   2      40.849 -51.351  70.835  0.00  0.00    -0.273 OA
BRANCH  42  46
ATOM     46  CA  GLY A   2      40.555 -50.524  73.054  0.00  0.00    +0.176 C 
BRANCH  46  49
ATOM     47  C   PHE A   1      40.340 -51.948  75.004  0.00  0.00    +0.239 C 
ATOM     48  O   PHE A   1      41.151 -52.762  74.554  0.00  0.00    -0.274 OA
ATOM     49  N   GLY A   2      39.961 -50.859  74.338  0.00  0.00    -0.296 N 
ATOM     50  H   GLY A   2      39.230 -50.239  74.742  0.00  0.00    +0.150 HD
BRANCH  47  51
ATOM     51  CA  PHE A   1      39.674 -52.181  76.364  0.00  0.00    +0.149 C 
BRANCH  51  52
ATOM     52  N   PHE A   1      38.724 -51.129  76.729  0.00  0.00    -0.238 NA
ATOM     53  H   PHE A   1      37.763 -51.161  76.332  0.00  0.00    +0.142 HD
ENDBRANCH  51  52
BRANCH  51  54
ATOM     54  CB  PHE A   1      38.983 -53.544  76.396  0.00  0.00    +0.053 C 
BRANCH  54  55
ATOM     55  CG  PHE A   1      38.646 -54.003  77.770  0.00  0.00    -0.020 A 
ATOM     56  CD2 PHE A   1      39.511 -54.832  78.463  0.00  0.00    -0.004 A 
ATOM     57  CE2 PHE A   1      39.230 -55.226  79.755  0.00  0.00    -0.000 A 
ATOM     58  CZ  PHE A   1      38.067 -54.793  80.374  0.00  0.00    -0.000 A 
ATOM     59  CE1 PHE A   1      37.187 -53.964  79.691  0.00  0.00    -0.000 A 
ATOM     60  CD1 PHE A   1      37.481 -53.575  78.394  0.00  0.00    -0.004 A 
ENDBRANCH  54  55
ENDBRANCH  51  54
ENDBRANCH  47  51
ENDBRANCH  46  49
ENDBRANCH  42  46
ENDBRANCH  41  43
BRANCH  41  61
ATOM     61  CB  VAL A   3      38.659 -54.461  71.241  0.00  0.00    +0.027 C 
ATOM     62  CG2 VAL A   3      37.968 -54.724  72.583  0.00  0.00    +0.002 C 
ATOM     63  CG1 VAL A   3      40.116 -54.923  71.272  0.00  0.00    +0.002 C 
ENDBRANCH  41  61
ENDBRANCH  37  41
ENDBRANCH  36  38
ENDBRANCH  32  36
ENDBRANCH   1  34
BRANCH   1  64
ATOM     64  CB  PHE A   5      36.326 -50.942  65.777  0.00  0.00    +0.055 C 
BRANCH  64  65
ATOM     65  CG  PHE A   5      35.970 -51.490  64.416  0.00  0.00    -0.020 A 
ATOM     66  CD2 PHE A   5      36.370 -52.773  64.043  0.00  0.00    -0.004 A 
ATOM     67  CE2 PHE A   5      36.030 -53.296  62.788  0.00  0.00    -0.000 A 
ATOM     68  CZ  PHE A   5      35.283 -52.524  61.895  0.00  0.00    -0.000 A 
ATOM     69  CE1 PHE A   5      34.877 -51.238  62.259  0.00  0.00    -0.000 A 
ATOM     70  CD1 PHE A   5      35.221 -50.731  63.513  0.00  0.00    -0.004 A 
ENDBRANCH  64  65
ENDBRANCH   1  64
TORSDOF 26
REMARK  Name = ../refined-set-2016/1yet/1yet_pocket.pdb
REMARK  219 active torsions:
REMARK  status: ('A' for Active; 'I' for Inactive)
REMARK    1  A    between atoms: _1  and  _3
REMARK    2  A    between atoms: _3  and  _4
REMARK    3  A    between atoms: _3  and  _6
REMARK    4  A    between atoms: _6  and  _7
REMARK    5  A    between atoms: _10  and  _12
REMARK    6  A    between atoms: _12  and  _13
REMARK    7  A    between atoms: _12  and  _15
REMARK    8  A    between atoms: _15  and  _16
REMARK    9  A    between atoms: _19  and  _21
REMARK   10  A    between atoms: _21  and  _22
REMARK   11  A    between atoms: _21  and  _24
REMARK   12  A    between atoms: _24  and  _25
REMARK   13  A    between atoms: _25  and  _26
REMARK   14  A    between atoms: _29  and  _31
REMARK   15  A    between atoms: _31  and  _32
REMARK   16  A    between atoms: _31  and  _34
REMARK   17  A    between atoms: _34  and  _35
REMARK   18  A    between atoms: _38  and  _40
REMARK   19  A    between atoms: _40  and  _41
REMARK   20  A    between atoms: _40  and  _43
REMARK   21  A    between atoms: _43  and  _44
REMARK   22  A    between atoms: _47  and  _49
REMARK   23  A    between atoms: _49  and  _50
REMARK   24  A    between atoms: _49  and  _52
REMARK   25  A    between atoms: _52  and  _53
REMARK   26  A    between atoms: _55  and  _57
REMARK   27  A    between atoms: _57  and  _58
REMARK   28  A    between atoms: _57  and  _60
REMARK   29  A    between atoms: _60  and  _61
REMARK   30  A    between atoms: _66  and  _68
REMARK   31  A    between atoms: _68  and  _69
REMARK   32  A    between atoms: _68  and  _71
REMARK   33  A    between atoms: _71  and  _72
REMARK   34  A    between atoms: _74  and  _76
REMARK   35  A    between atoms: _76  and  _77
REMARK   36  A    between atoms: _76  and  _79
REMARK   37  A    between atoms: _79  and  _80
REMARK   38  A    between atoms: _82  and  _84
REMARK   39  A    between atoms: _84  and  _85
REMARK   40  A    between atoms: _84  and  _87
REMARK   41  A    between atoms: _87  and  _88
REMARK   42  A    between atoms: _91  and  _93
REMARK   43  A    between atoms: _93  and  _94
REMARK   44  A    between atoms: _97  and  _99
REMARK   45  A    between atoms: _99  and  _100
REMARK   46  A    between atoms: _99  and  _102
REMARK   47  A    between atoms: _102  and  _103
REMARK   48  A    between atoms: _106  and  _108
REMARK   49  A    between atoms: _108  and  _109
REMARK   50  A    between atoms: _108  and  _111
REMARK   51  A    between atoms: _111  and  _112
REMARK   52  A    between atoms: _115  and  _117
REMARK   53  A    between atoms: _117  and  _118
REMARK   54  A    between atoms: _117  and  _120
REMARK   55  A    between atoms: _120  and  _121
REMARK   56  A    between atoms: _121  and  _122
REMARK   57  A    between atoms: _122  and  _123
REMARK   58  A    between atoms: _123  and  _124
REMARK   59  A    between atoms: _128  and  _130
REMARK   60  A    between atoms: _130  and  _131
REMARK   61  A    between atoms: _130  and  _133
REMARK   62  A    between atoms: _133  and  _134
REMARK   63  A    between atoms: _137  and  _139
REMARK   64  A    between atoms: _139  and  _140
REMARK   65  A    between atoms: _139  and  _142
REMARK   66  A    between atoms: _142  and  _143
REMARK   67  A    between atoms: _143  and  _144
REMARK   68  A    between atoms: _147  and  _149
REMARK   69  A    between atoms: _149  and  _150
REMARK   70  A    between atoms: _149  and  _152
REMARK   71  A    between atoms: _152  and  _153
REMARK   72  A    between atoms: _156  and  _158
REMARK   73  A    between atoms: _158  and  _159
REMARK   74  A    between atoms: _158  and  _161
REMARK   75  A    between atoms: _161  and  _162
REMARK   76  A    between atoms: _165  and  _167
REMARK   77  A    between atoms: _167  and  _168
REMARK   78  A    between atoms: _167  and  _170
REMARK   79  A    between atoms: _173  and  _175
REMARK   80  A    between atoms: _175  and  _176
REMARK   81  A    between atoms: _175  and  _178
REMARK   82  A    between atoms: _178  and  _179
REMARK   83  A    between atoms: _182  and  _184
REMARK   84  A    between atoms: _184  and  _185
REMARK   85  A    between atoms: _184  and  _187
REMARK   86  A    between atoms: _187  and  _188
REMARK   87  A    between atoms: _191  and  _193
REMARK   88  A    between atoms: _193  and  _194
REMARK   89  A    between atoms: _196  and  _198
REMARK   90  A    between atoms: _198  and  _199
REMARK   91  A    between atoms: _198  and  _201
REMARK   92  A    between atoms: _201  and  _202
REMARK   93  A    between atoms: _205  and  _207
REMARK   94  A    between atoms: _207  and  _208
REMARK   95  A    between atoms: _210  and  _212
REMARK   96  A    between atoms: _212  and  _213
REMARK   97  A    between atoms: _212  and  _215
REMARK   98  A    between atoms: _215  and  _216
REMARK   99  A    between atoms: _216  and  _217
REMARK  100  A    between atoms: _219  and  _221
REMARK  101  A    between atoms: _221  and  _222
REMARK  102  A    between atoms: _221  and  _224
REMARK  103  A    between atoms: _224  and  _225
REMARK  104  A    between atoms: _228  and  _230
REMARK  105  A    between atoms: _230  and  _231
REMARK  106  A    between atoms: _234  and  _236
REMARK  107  A    between atoms: _236  and  _237
REMARK  108  A    between atoms: _236  and  _239
REMARK  109  A    between atoms: _239  and  _240
REMARK  110  A    between atoms: _243  and  _245
REMARK  111  A    between atoms: _245  and  _246
REMARK  112  A    between atoms: _245  and  _248
REMARK  113  A    between atoms: _248  and  _249
REMARK  114  A    between atoms: _252  and  _254
REMARK  115  A    between atoms: _254  and  _255
REMARK  116  A    between atoms: _254  and  _257
REMARK  117  A    between atoms: _257  and  _258
REMARK  118  A    between atoms: _263  and  _265
REMARK  119  A    between atoms: _265  and  _266
REMARK  120  A    between atoms: _265  and  _268
REMARK  121  A    between atoms: _268  and  _269
REMARK  122  A    between atoms: _274  and  _276
REMARK  123  A    between atoms: _276  and  _277
REMARK  124  A    between atoms: _276  and  _279
REMARK  125  A    between atoms: _279  and  _280
REMARK  126  A    between atoms: _283  and  _285
REMARK  127  A    between atoms: _285  and  _286
REMARK  128  A    between atoms: _288  and  _290
REMARK  129  A    between atoms: _290  and  _291
REMARK  130  A    between atoms: _290  and  _293
REMARK  131  A    between atoms: _293  and  _294
REMARK  132  A    between atoms: _297  and  _299
REMARK  133  A    between atoms: _299  and  _300
REMARK  134  A    between atoms: _299  and  _302
REMARK  135  A    between atoms: _302  and  _303
REMARK  136  A    between atoms: _303  and  _304
REMARK  137  A    between atoms: _304  and  _305
REMARK  138  A    between atoms: _305  and  _306
REMARK  139  A    between atoms: _310  and  _312
REMARK  140  A    between atoms: _312  and  _313
REMARK  141  A    between atoms: _312  and  _315
REMARK  142  A    between atoms: _315  and  _316
REMARK  143  A    between atoms: _319  and  _321
REMARK  144  A    between atoms: _321  and  _322
REMARK  145  A    between atoms: _324  and  _326
REMARK  146  A    between atoms: _326  and  _327
REMARK  147  A    between atoms: _326  and  _329
REMARK  148  A    between atoms: _329  and  _330
REMARK  149  A    between atoms: _336  and  _338
REMARK  150  A    between atoms: _338  and  _339
REMARK  151  A    between atoms: _341  and  _343
REMARK  152  A    between atoms: _343  and  _344
REMARK  153  A    between atoms: _343  and  _346
REMARK  154  A    between atoms: _349  and  _351
REMARK  155  A    between atoms: _351  and  _352
REMARK  156  A    between atoms: _354  and  _356
REMARK  157  A    between atoms: _356  and  _357
REMARK  158  A    between atoms: _356  and  _359
REMARK  159  A    between atoms: _359  and  _360
REMARK  160  A    between atoms: _366  and  _368
REMARK  161  A    between atoms: _368  and  _369
REMARK  162  A    between atoms: _368  and  _371
REMARK  163  A    between atoms: _371  and  _372
REMARK  164  A    between atoms: _377  and  _378
REMARK  165  A    between atoms: _380  and  _382
REMARK  166  A    between atoms: _382  and  _383
REMARK  167  A    between atoms: _382  and  _385
REMARK  168  A    between atoms: _385  and  _386
REMARK  169  A    between atoms: _388  and  _390
REMARK  170  A    between atoms: _390  and  _391
REMARK  171  A    between atoms: _394  and  _396
REMARK  172  A    between atoms: _396  and  _397
REMARK  173  A    between atoms: _396  and  _399
REMARK  174  A    between atoms: _402  and  _404
REMARK  175  A    between atoms: _404  and  _405
REMARK  176  A    between atoms: _404  and  _407
REMARK  177  A    between atoms: _407  and  _408
REMARK  178  A    between atoms: _411  and  _413
REMARK  179  A    between atoms: _413  and  _414
REMARK  180  A    between atoms: _413  and  _416
REMARK  181  A    between atoms: _419  and  _421
REMARK  182  A    between atoms: _421  and  _422
REMARK  183  A    between atoms: _421  and  _424
REMARK  184  A    between atoms: _424  and  _425
REMARK  185  A    between atoms: _428  and  _430
REMARK  186  A    between atoms: _430  and  _431
REMARK  187  A    between atoms: _430  and  _433
REMARK  188  A    between atoms: _433  and  _434
REMARK  189  A    between atoms: _437  and  _439
REMARK  190  A    between atoms: _439  and  _440
REMARK  191  A    between atoms: _439  and  _442
REMARK  192  A    between atoms: _442  and  _443
REMARK  193  A    between atoms: _443  and  _444
REMARK  194  A    between atoms: _444  and  _445
REMARK  195  A    between atoms: _445  and  _446
REMARK  196  A    between atoms: _450  and  _452
REMARK  197  A    between atoms: _452  and  _453
REMARK  198  A    between atoms: _452  and  _455
REMARK  199  A    between atoms: _455  and  _456
REMARK  200  A    between atoms: _461  and  _463
REMARK  201  A    between atoms: _463  and  _464
REMARK  202  A    between atoms: _463  and  _466
REMARK  203  A    between atoms: _466  and  _467
REMARK  204  A    between atoms: _477  and  _479
REMARK  205  A    between atoms: _479  and  _480
REMARK  206  A    between atoms: _482  and  _484
REMARK  207  A    between atoms: _484  and  _485
REMARK  208  A    between atoms: _484  and  _487
REMARK  209  A    between atoms: _487  and  _488
REMARK  210  A    between atoms: _491  and  _493
REMARK  211  A    between atoms: _493  and  _494
REMARK  212  A    between atoms: _493  and  _496
REMARK  213  A    between atoms: _496  and  _497
REMARK  214  A    between atoms: _497  and  _498
REMARK  215  A    between atoms: _498  and  _499
REMARK  216  A    between atoms: _499  and  _500
REMARK  217  A    between atoms: _504  and  _506
REMARK  218  A    between atoms: _506  and  _507
REMARK  219  A    between atoms: _506  and  _509
REMARK                            x       y       z     vdW  Elec       q    Type
REMARK                         _______ _______ _______ _____ _____    ______ ____
ROOT
ATOM      1  C   ILE A   4      36.699 -45.991  54.042  0.00  0.00    +0.241 C 
ATOM      2  O   ILE A   4      36.182 -45.288  54.919  0.00  0.00    -0.273 OA
ATOM      3  N   THR A   5      37.941 -45.793  53.598  0.00  0.00    -0.295 N 
ATOM      4  H   THR A   5      38.315 -46.373  52.820  0.00  0.00    +0.150 HD
ENDROOT
BRANCH   3   5
ATOM      5  CA  THR A   5      38.771 -44.765  54.203  0.00  0.00    +0.176 C 
BRANCH   5   6
ATOM      6  C   THR A   5      39.746 -44.091  53.233  0.00  0.00    +0.243 C 
ATOM      7  N   LYS A   6      40.043 -42.815  53.496  0.00  0.00    -0.297 N 
ATOM      8  H   LYS A   6      39.601 -42.365  54.322  0.00  0.00    +0.150 HD
ATOM      9  O   THR A   5      40.204 -44.718  52.263  0.00  0.00    -0.273 OA
BRANCH   7  10
ATOM     10  CA  LYS A   6      40.965 -42.016  52.674  0.00  0.00    +0.149 C 
BRANCH  10  11
ATOM     11  C   LYS A   6      41.849 -41.158  53.560  0.00  0.00    +0.241 C 
ATOM     12  O   LYS A   6      41.368 -40.303  54.301  0.00  0.00    -0.273 OA
ATOM     13  N   HIS A   7      43.149 -41.403  53.481  0.00  0.00    -0.298 N 
ATOM     14  H   HIS A   7      43.473 -42.159  52.845  0.00  0.00    +0.150 HD
BRANCH  13  15
ATOM     15  CA  HIS A   7      44.143 -40.665  54.241  0.00  0.00    +0.143 C 
BRANCH  15  16
ATOM     16  C   HIS A   7      44.932 -39.849  53.198  0.00  0.00    +0.227 C 
ATOM     17  O   HIS A   7      45.079 -40.285  52.048  0.00  0.00    -0.286 OA
ENDBRANCH  15  16
BRANCH  15  18
ATOM     18  CB  HIS A   7      45.045 -41.662  54.971  0.00  0.00    +0.075 C 
BRANCH  18  19
ATOM     19  CG  HIS A   7      46.088 -41.022  55.826  0.00  0.00    +0.082 A 
ATOM     20  ND1 HIS A   7      46.063 -41.090  57.200  0.00  0.00    -0.227 NA
ATOM     21  CE1 HIS A   7      47.106 -40.448  57.691  0.00  0.00    +0.199 A 
ATOM     22  NE2 HIS A   7      47.807 -39.964  56.682  0.00  0.00    -0.221 NA
ATOM     23  CD2 HIS A   7      47.192 -40.309  55.505  0.00  0.00    +0.115 A 
ENDBRANCH  18  19
ENDBRANCH  15  18
ENDBRANCH  13  15
ENDBRANCH  10  11
BRANCH  10  24
ATOM     24  CB  LYS A   6      40.201 -41.121  51.691  0.00  0.00    +0.029 C 
BRANCH  24  25
ATOM     25  CG  LYS A   6      41.080 -40.181  50.843  0.00  0.00    +0.000 C 
BRANCH  25  26
ATOM     26  CD  LYS A   6      42.013 -40.951  49.920  0.00  0.00    -0.024 C 
BRANCH  26  27
ATOM     27  CE  LYS A   6      42.838 -40.026  49.022  0.00  0.00    -0.086 C 
BRANCH  27  28
ATOM     28  NZ  LYS A   6      43.895 -39.287  49.769  0.00  0.00    +0.380 N 
ATOM     29  HZ1 LYS A   6      43.452 -38.702  50.506  0.00  0.00    -0.089 HD
ATOM     30  HZ2 LYS A   6      44.547 -39.967  50.209  0.00  0.00    -0.089 HD
ATOM     31  HZ3 LYS A   6      44.421 -38.677  49.111  0.00  0.00    -0.089 HD
ENDBRANCH  27  28
ENDBRANCH  26  27
ENDBRANCH  25  26
ENDBRANCH  24  25
ENDBRANCH  10  24
ENDBRANCH   7  10
ENDBRANCH   5   6
BRANCH   5  32
ATOM     32  CB  THR A   5      39.541 -45.396  55.391  0.00  0.00    +0.137 C 
ATOM     33  CG2 THR A   5      40.665 -46.291  54.883  0.00  0.00    +0.034 C 
BRANCH  32  34
ATOM     34  OG1 THR A   5      40.068 -44.376  56.246  0.00  0.00    -0.382 OA
ATOM     35  HG1 THR A   5      39.324 -43.827  56.600  0.00  0.00    +0.210 HD
ENDBRANCH  32  34
ENDBRANCH   5  32
ENDBRANCH   3   5
BRANCH   1  36
ATOM     36  CA  ILE A   4      35.902 -47.136  53.420  0.00  0.00    +0.149 C 
BRANCH  36  38
ATOM     37  C   VAL A   3      35.793 -48.945  55.026  0.00  0.00    +0.241 C 
ATOM     38  N   ILE A   4      35.273 -47.827  54.540  0.00  0.00    -0.297 N 
ATOM     39  H   ILE A   4      34.406 -47.438  54.962  0.00  0.00    +0.150 HD
ATOM     40  O   VAL A   3      36.748 -49.511  54.500  0.00  0.00    -0.273 OA
BRANCH  37  41
ATOM     41  CA  VAL A   3      35.084 -49.563  56.220  0.00  0.00    +0.149 C 
BRANCH  41  44
ATOM     42  C   THR A   2      33.123 -50.902  55.798  0.00  0.00    +0.243 C 
ATOM     43  O   THR A   2      32.378 -50.000  56.223  0.00  0.00    -0.273 OA
ATOM     44  N   VAL A   3      34.444 -50.804  55.813  0.00  0.00    -0.297 N 
ATOM     45  H   VAL A   3      35.026 -51.619  55.532  0.00  0.00    +0.150 HD
BRANCH  42  46
ATOM     46  CA  THR A   2      32.539 -52.224  55.311  0.00  0.00    +0.176 C 
BRANCH  46  49
ATOM     47  C   VAL A   1      31.831 -53.823  57.020  0.00  0.00    +0.238 C 
ATOM     48  O   VAL A   1      32.751 -54.615  56.765  0.00  0.00    -0.274 OA
ATOM     49  N   THR A   2      31.629 -52.696  56.350  0.00  0.00    -0.295 N 
ATOM     50  H   THR A   2      30.789 -52.126  56.574  0.00  0.00    +0.150 HD
BRANCH  47  51
ATOM     51  CA  VAL A   1      30.796 -54.145  58.105  0.00  0.00    +0.145 C 
BRANCH  51  52
ATOM     52  CB  VAL A   1      31.441 -53.883  59.500  0.00  0.00    +0.025 C 
ATOM     53  CG2 VAL A   1      30.460 -54.206  60.631  0.00  0.00    +0.002 C 
ATOM     54  CG1 VAL A   1      31.906 -52.434  59.594  0.00  0.00    +0.002 C 
ENDBRANCH  51  52
BRANCH  51  55
ATOM     55  N   VAL A   1      30.336 -55.522  57.951  0.00  0.00    -0.238 NA
ATOM     56  H   VAL A   1      31.040 -56.283  57.869  0.00  0.00    +0.142 HD
ENDBRANCH  51  55
ENDBRANCH  47  51
ENDBRANCH  46  49
BRANCH  46  57
ATOM     57  CB  THR A   2      31.786 -51.944  53.995  0.00  0.00    +0.137 C 
ATOM     58  CG2 THR A   2      32.768 -51.522  52.881  0.00  0.00    +0.034 C 
BRANCH  57  59
ATOM     59  OG1 THR A   2      31.075 -53.121  53.595  0.00  0.00    -0.382 OA
ATOM     60  HG1 THR A   2      31.717 -53.862  53.458  0.00  0.00    +0.210 HD
ENDBRANCH  57  59
ENDBRANCH  46  57
ENDBRANCH  42  46
ENDBRANCH  41  44
BRANCH  41  61
ATOM     61  CB  VAL A   3      36.103 -49.775  57.365  0.00  0.00    +0.027 C 
ATOM     62  CG2 VAL A   3      35.407 -50.406  58.577  0.00  0.00    +0.002 C 
ATOM     63  CG1 VAL A   3      36.776 -48.423  57.746  0.00  0.00    +0.002 C 
ENDBRANCH  41  61
ENDBRANCH  37  41
ENDBRANCH  36  38
BRANCH  36  64
ATOM     64  CB  ILE A   4      34.862 -46.649  52.397  0.00  0.00    +0.027 C 
ATOM     65  CG2 ILE A   4      35.546 -45.819  51.305  0.00  0.00    +0.002 C 
BRANCH  64  66
ATOM     66  CG1 ILE A   4      34.148 -47.880  51.811  0.00  0.00    +0.002 C 
ATOM     67  CD1 ILE A   4      33.067 -47.588  50.822  0.00  0.00    +0.000 C 
ENDBRANCH  64  66
ENDBRANCH  36  64
ENDBRANCH   1  36
TORSDOF 29
REMARK  Name = ../refined-set-2016/1yet/1yet_pocket.pdb
REMARK  219 active torsions:
REMARK  status: ('A' for Active; 'I' for Inactive)
REMARK    1  A    between atoms: _1  and  _3
REMARK    2  A    between atoms: _3  and  _4
REMARK    3  A    between atoms: _3  and  _6
REMARK    4  A    between atoms: _6  and  _7
REMARK    5  A    between atoms: _10  and  _12
REMARK    6  A    between atoms: _12  and  _13
REMARK    7  A    between atoms: _12  and  _15
REMARK    8  A    between atoms: _15  and  _16
REMARK    9  A    between atoms: _19  and  _21
REMARK   10  A    between atoms: _21  and  _22
REMARK   11  A    between atoms: _21  and  _24
REMARK   12  A    between atoms: _24  and  _25
REMARK   13  A    between atoms: _25  and  _26
REMARK   14  A    between atoms: _29  and  _31
REMARK   15  A    between atoms: _31  and  _32
REMARK   16  A    between atoms: _31  and  _34
REMARK   17  A    between atoms: _34  and  _35
REMARK   18  A    between atoms: _38  and  _40
REMARK   19  A    between atoms: _40  and  _41
REMARK   20  A    between atoms: _40  and  _43
REMARK   21  A    between atoms: _43  and  _44
REMARK   22  A    between atoms: _47  and  _49
REMARK   23  A    between atoms: _49  and  _50
REMARK   24  A    between atoms: _49  and  _52
REMARK   25  A    between atoms: _52  and  _53
REMARK   26  A    between atoms: _55  and  _57
REMARK   27  A    between atoms: _57  and  _58
REMARK   28  A    between atoms: _57  and  _60
REMARK   29  A    between atoms: _60  and  _61
REMARK   30  A    between atoms: _66  and  _68
REMARK   31  A    between atoms: _68  and  _69
REMARK   32  A    between atoms: _68  and  _71
REMARK   33  A    between atoms: _71  and  _72
REMARK   34  A    between atoms: _74  and  _76
REMARK   35  A    between atoms: _76  and  _77
REMARK   36  A    between atoms: _76  and  _79
REMARK   37  A    between atoms: _79  and  _80
REMARK   38  A    between atoms: _82  and  _84
REMARK   39  A    between atoms: _84  and  _85
REMARK   40  A    between atoms: _84  and  _87
REMARK   41  A    between atoms: _87  and  _88
REMARK   42  A    between atoms: _91  and  _93
REMARK   43  A    between atoms: _93  and  _94
REMARK   44  A    between atoms: _97  and  _99
REMARK   45  A    between atoms: _99  and  _100
REMARK   46  A    between atoms: _99  and  _102
REMARK   47  A    between atoms: _102  and  _103
REMARK   48  A    between atoms: _106  and  _108
REMARK   49  A    between atoms: _108  and  _109
REMARK   50  A    between atoms: _108  and  _111
REMARK   51  A    between atoms: _111  and  _112
REMARK   52  A    between atoms: _115  and  _117
REMARK   53  A    between atoms: _117  and  _118
REMARK   54  A    between atoms: _117  and  _120
REMARK   55  A    between atoms: _120  and  _121
REMARK   56  A    between atoms: _121  and  _122
REMARK   57  A    between atoms: _122  and  _123
REMARK   58  A    between atoms: _123  and  _124
REMARK   59  A    between atoms: _128  and  _130
REMARK   60  A    between atoms: _130  and  _131
REMARK   61  A    between atoms: _130  and  _133
REMARK   62  A    between atoms: _133  and  _134
REMARK   63  A    between atoms: _137  and  _139
REMARK   64  A    between atoms: _139  and  _140
REMARK   65  A    between atoms: _139  and  _142
REMARK   66  A    between atoms: _142  and  _143
REMARK   67  A    between atoms: _143  and  _144
REMARK   68  A    between atoms: _147  and  _149
REMARK   69  A    between atoms: _149  and  _150
REMARK   70  A    between atoms: _149  and  _152
REMARK   71  A    between atoms: _152  and  _153
REMARK   72  A    between atoms: _156  and  _158
REMARK   73  A    between atoms: _158  and  _159
REMARK   74  A    between atoms: _158  and  _161
REMARK   75  A    between atoms: _161  and  _162
REMARK   76  A    between atoms: _165  and  _167
REMARK   77  A    between atoms: _167  and  _168
REMARK   78  A    between atoms: _167  and  _170
REMARK   79  A    between atoms: _173  and  _175
REMARK   80  A    between atoms: _175  and  _176
REMARK   81  A    between atoms: _175  and  _178
REMARK   82  A    between atoms: _178  and  _179
REMARK   83  A    between atoms: _182  and  _184
REMARK   84  A    between atoms: _184  and  _185
REMARK   85  A    between atoms: _184  and  _187
REMARK   86  A    between atoms: _187  and  _188
REMARK   87  A    between atoms: _191  and  _193
REMARK   88  A    between atoms: _193  and  _194
REMARK   89  A    between atoms: _196  and  _198
REMARK   90  A    between atoms: _198  and  _199
REMARK   91  A    between atoms: _198  and  _201
REMARK   92  A    between atoms: _201  and  _202
REMARK   93  A    between atoms: _205  and  _207
REMARK   94  A    between atoms: _207  and  _208
REMARK   95  A    between atoms: _210  and  _212
REMARK   96  A    between atoms: _212  and  _213
REMARK   97  A    between atoms: _212  and  _215
REMARK   98  A    between atoms: _215  and  _216
REMARK   99  A    between atoms: _216  and  _217
REMARK  100  A    between atoms: _219  and  _221
REMARK  101  A    between atoms: _221  and  _222
REMARK  102  A    between atoms: _221  and  _224
REMARK  103  A    between atoms: _224  and  _225
REMARK  104  A    between atoms: _228  and  _230
REMARK  105  A    between atoms: _230  and  _231
REMARK  106  A    between atoms: _234  and  _236
REMARK  107  A    between atoms: _236  and  _237
REMARK  108  A    between atoms: _236  and  _239
REMARK  109  A    between atoms: _239  and  _240
REMARK  110  A    between atoms: _243  and  _245
REMARK  111  A    between atoms: _245  and  _246
REMARK  112  A    between atoms: _245  and  _248
REMARK  113  A    between atoms: _248  and  _249
REMARK  114  A    between atoms: _252  and  _254
REMARK  115  A    between atoms: _254  and  _255
REMARK  116  A    between atoms: _254  and  _257
REMARK  117  A    between atoms: _257  and  _258
REMARK  118  A    between atoms: _263  and  _265
REMARK  119  A    between atoms: _265  and  _266
REMARK  120  A    between atoms: _265  and  _268
REMARK  121  A    between atoms: _268  and  _269
REMARK  122  A    between atoms: _274  and  _276
REMARK  123  A    between atoms: _276  and  _277
REMARK  124  A    between atoms: _276  and  _279
REMARK  125  A    between atoms: _279  and  _280
REMARK  126  A    between atoms: _283  and  _285
REMARK  127  A    between atoms: _285  and  _286
REMARK  128  A    between atoms: _288  and  _290
REMARK  129  A    between atoms: _290  and  _291
REMARK  130  A    between atoms: _290  and  _293
REMARK  131  A    between atoms: _293  and  _294
REMARK  132  A    between atoms: _297  and  _299
REMARK  133  A    between atoms: _299  and  _300
REMARK  134  A    between atoms: _299  and  _302
REMARK  135  A    between atoms: _302  and  _303
REMARK  136  A    between atoms: _303  and  _304
REMARK  137  A    between atoms: _304  and  _305
REMARK  138  A    between atoms: _305  and  _306
REMARK  139  A    between atoms: _310  and  _312
REMARK  140  A    between atoms: _312  and  _313
REMARK  141  A    between atoms: _312  and  _315
REMARK  142  A    between atoms: _315  and  _316
REMARK  143  A    between atoms: _319  and  _321
REMARK  144  A    between atoms: _321  and  _322
REMARK  145  A    between atoms: _324  and  _326
REMARK  146  A    between atoms: _326  and  _327
REMARK  147  A    between atoms: _326  and  _329
REMARK  148  A    between atoms: _329  and  _330
REMARK  149  A    between atoms: _336  and  _338
REMARK  150  A    between atoms: _338  and  _339
REMARK  151  A    between atoms: _341  and  _343
REMARK  152  A    between atoms: _343  and  _344
REMARK  153  A    between atoms: _343  and  _346
REMARK  154  A    between atoms: _349  and  _351
REMARK  155  A    between atoms: _351  and  _352
REMARK  156  A    between atoms: _354  and  _356
REMARK  157  A    between atoms: _356  and  _357
REMARK  158  A    between atoms: _356  and  _359
REMARK  159  A    between atoms: _359  and  _360
REMARK  160  A    between atoms: _366  and  _368
REMARK  161  A    between atoms: _368  and  _369
REMARK  162  A    between atoms: _368  and  _371
REMARK  163  A    between atoms: _371  and  _372
REMARK  164  A    between atoms: _377  and  _378
REMARK  165  A    between atoms: _380  and  _382
REMARK  166  A    between atoms: _382  and  _383
REMARK  167  A    between atoms: _382  and  _385
REMARK  168  A    between atoms: _385  and  _386
REMARK  169  A    between atoms: _388  and  _390
REMARK  170  A    between atoms: _390  and  _391
REMARK  171  A    between atoms: _394  and  _396
REMARK  172  A    between atoms: _396  and  _397
REMARK  173  A    between atoms: _396  and  _399
REMARK  174  A    between atoms: _402  and  _404
REMARK  175  A    between atoms: _404  and  _405
REMARK  176  A    between atoms: _404  and  _407
REMARK  177  A    between atoms: _407  and  _408
REMARK  178  A    between atoms: _411  and  _413
REMARK  179  A    between atoms: _413  and  _414
REMARK  180  A    between atoms: _413  and  _416
REMARK  181  A    between atoms: _419  and  _421
REMARK  182  A    between atoms: _421  and  _422
REMARK  183  A    between atoms: _421  and  _424
REMARK  184  A    between atoms: _424  and  _425
REMARK  185  A    between atoms: _428  and  _430
REMARK  186  A    between atoms: _430  and  _431
REMARK  187  A    between atoms: _430  and  _433
REMARK  188  A    between atoms: _433  and  _434
REMARK  189  A    between atoms: _437  and  _439
REMARK  190  A    between atoms: _439  and  _440
REMARK  191  A    between atoms: _439  and  _442
REMARK  192  A    between atoms: _442  and  _443
REMARK  193  A    between atoms: _443  and  _444
REMARK  194  A    between atoms: _444  and  _445
REMARK  195  A    between atoms: _445  and  _446
REMARK  196  A    between atoms: _450  and  _452
REMARK  197  A    between atoms: _452  and  _453
REMARK  198  A    between atoms: _452  and  _455
REMARK  199  A    between atoms: _455  and  _456
REMARK  200  A    between atoms: _461  and  _463
REMARK  201  A    between atoms: _463  and  _464
REMARK  202  A    between atoms: _463  and  _466
REMARK  203  A    between atoms: _466  and  _467
REMARK  204  A    between atoms: _477  and  _479
REMARK  205  A    between atoms: _479  and  _480
REMARK  206  A    between atoms: _482  and  _484
REMARK  207  A    between atoms: _484  and  _485
REMARK  208  A    between atoms: _484  and  _487
REMARK  209  A    between atoms: _487  and  _488
REMARK  210  A    between atoms: _491  and  _493
REMARK  211  A    between atoms: _493  and  _494
REMARK  212  A    between atoms: _493  and  _496
REMARK  213  A    between atoms: _496  and  _497
REMARK  214  A    between atoms: _497  and  _498
REMARK  215  A    between atoms: _498  and  _499
REMARK  216  A    between atoms: _499  and  _500
REMARK  217  A    between atoms: _504  and  _506
REMARK  218  A    between atoms: _506  and  _507
REMARK  219  A    between atoms: _506  and  _509
REMARK                            x       y       z     vdW  Elec       q    Type
REMARK                         _______ _______ _______ _____ _____    ______ ____
ROOT
ATOM      1  CG  TRP A   1      38.764 -53.549  56.607  0.00  0.00    -0.002 A 
ATOM      2  CD2 TRP A   1      37.754 -54.074  57.490  0.00  0.00    +0.013 A 
ATOM      3  CE2 TRP A   1      38.411 -54.881  58.442  0.00  0.00    +0.056 A 
ATOM      4  CZ2 TRP A   1      37.725 -55.550  59.469  0.00  0.00    +0.017 A 
ATOM      5  CH2 TRP A   1      36.366 -55.395  59.527  0.00  0.00    +0.001 A 
ATOM      6  CZ3 TRP A   1      35.678 -54.596  58.591  0.00  0.00    +0.000 A 
ATOM      7  NE1 TRP A   1      39.751 -54.849  58.146  0.00  0.00    -0.352 N 
ATOM      8  HE1 TRP A   1      40.497 -55.346  58.673  0.00  0.00    +0.166 HD
ATOM      9  CE3 TRP A   1      36.359 -53.932  57.574  0.00  0.00    +0.001 A 
ATOM     10  CD1 TRP A   1      39.948 -54.058  57.045  0.00  0.00    +0.068 A 
ENDROOT
BRANCH   1  11
ATOM     11  CB  TRP A   1      38.579 -52.531  55.499  0.00  0.00    +0.053 C 
BRANCH  11  12
ATOM     12  CA  TRP A   1      38.019 -53.035  54.160  0.00  0.00    +0.137 C 
BRANCH  12  13
ATOM     13  N   TRP A   1      37.782 -51.883  53.297  0.00  0.00    -0.239 NA
ATOM     14  H   TRP A   1      37.343 -51.041  53.722  0.00  0.00    +0.142 HD
ENDBRANCH  12  13
BRANCH  12  15
ATOM     15  C   TRP A   1      36.599 -53.590  54.338  0.00  0.00    +0.224 C 
ATOM     16  O   TRP A   1      35.610 -52.830  54.254  0.00  0.00    -0.287 OA
ENDBRANCH  12  15
ENDBRANCH  11  12
ENDBRANCH   1  11
TORSDOF 4
REMARK  Name = ../refined-set-2016/1yet/1yet_pocket.pdb
REMARK  219 active torsions:
REMARK  status: ('A' for Active; 'I' for Inactive)
REMARK    1  A    between atoms: _1  and  _3
REMARK    2  A    between atoms: _3  and  _4
REMARK    3  A    between atoms: _3  and  _6
REMARK    4  A    between atoms: _6  and  _7
REMARK    5  A    between atoms: _10  and  _12
REMARK    6  A    between atoms: _12  and  _13
REMARK    7  A    between atoms: _12  and  _15
REMARK    8  A    between atoms: _15  and  _16
REMARK    9  A    between atoms: _19  and  _21
REMARK   10  A    between atoms: _21  and  _22
REMARK   11  A    between atoms: _21  and  _24
REMARK   12  A    between atoms: _24  and  _25
REMARK   13  A    between atoms: _25  and  _26
REMARK   14  A    between atoms: _29  and  _31
REMARK   15  A    between atoms: _31  and  _32
REMARK   16  A    between atoms: _31  and  _34
REMARK   17  A    between atoms: _34  and  _35
REMARK   18  A    between atoms: _38  and  _40
REMARK   19  A    between atoms: _40  and  _41
REMARK   20  A    between atoms: _40  and  _43
REMARK   21  A    between atoms: _43  and  _44
REMARK   22  A    between atoms: _47  and  _49
REMARK   23  A    between atoms: _49  and  _50
REMARK   24  A    between atoms: _49  and  _52
REMARK   25  A    between atoms: _52  and  _53
REMARK   26  A    between atoms: _55  and  _57
REMARK   27  A    between atoms: _57  and  _58
REMARK   28  A    between atoms: _57  and  _60
REMARK   29  A    between atoms: _60  and  _61
REMARK   30  A    between atoms: _66  and  _68
REMARK   31  A    between atoms: _68  and  _69
REMARK   32  A    between atoms: _68  and  _71
REMARK   33  A    between atoms: _71  and  _72
REMARK   34  A    between atoms: _74  and  _76
REMARK   35  A    between atoms: _76  and  _77
REMARK   36  A    between atoms: _76  and  _79
REMARK   37  A    between atoms: _79  and  _80
REMARK   38  A    between atoms: _82  and  _84
REMARK   39  A    between atoms: _84  and  _85
REMARK   40  A    between atoms: _84  and  _87
REMARK   41  A    between atoms: _87  and  _88
REMARK   42  A    between atoms: _91  and  _93
REMARK   43  A    between atoms: _93  and  _94
REMARK   44  A    between atoms: _97  and  _99
REMARK   45  A    between atoms: _99  and  _100
REMARK   46  A    between atoms: _99  and  _102
REMARK   47  A    between atoms: _102  and  _103
REMARK   48  A    between atoms: _106  and  _108
REMARK   49  A    between atoms: _108  and  _109
REMARK   50  A    between atoms: _108  and  _111
REMARK   51  A    between atoms: _111  and  _112
REMARK   52  A    between atoms: _115  and  _117
REMARK   53  A    between atoms: _117  and  _118
REMARK   54  A    between atoms: _117  and  _120
REMARK   55  A    between atoms: _120  and  _121
REMARK   56  A    between atoms: _121  and  _122
REMARK   57  A    between atoms: _122  and  _123
REMARK   58  A    between atoms: _123  and  _124
REMARK   59  A    between atoms: _128  and  _130
REMARK   60  A    between atoms: _130  and  _131
REMARK   61  A    between atoms: _130  and  _133
REMARK   62  A    between atoms: _133  and  _134
REMARK   63  A    between atoms: _137  and  _139
REMARK   64  A    between atoms: _139  and  _140
REMARK   65  A    between atoms: _139  and  _142
REMARK   66  A    between atoms: _142  and  _143
REMARK   67  A    between atoms: _143  and  _144
REMARK   68  A    between atoms: _147  and  _149
REMARK   69  A    between atoms: _149  and  _150
REMARK   70  A    between atoms: _149  and  _152
REMARK   71  A    between atoms: _152  and  _153
REMARK   72  A    between atoms: _156  and  _158
REMARK   73  A    between atoms: _158  and  _159
REMARK   74  A    between atoms: _158  and  _161
REMARK   75  A    between atoms: _161  and  _162
REMARK   76  A    between atoms: _165  and  _167
REMARK   77  A    between atoms: _167  and  _168
REMARK   78  A    between atoms: _167  and  _170
REMARK   79  A    between atoms: _173  and  _175
REMARK   80  A    between atoms: _175  and  _176
REMARK   81  A    between atoms: _175  and  _178
REMARK   82  A    between atoms: _178  and  _179
REMARK   83  A    between atoms: _182  and  _184
REMARK   84  A    between atoms: _184  and  _185
REMARK   85  A    between atoms: _184  and  _187
REMARK   86  A    between atoms: _187  and  _188
REMARK   87  A    between atoms: _191  and  _193
REMARK   88  A    between atoms: _193  and  _194
REMARK   89  A    between atoms: _196  and  _198
REMARK   90  A    between atoms: _198  and  _199
REMARK   91  A    between atoms: _198  and  _201
REMARK   92  A    between atoms: _201  and  _202
REMARK   93  A    between atoms: _205  and  _207
REMARK   94  A    between atoms: _207  and  _208
REMARK   95  A    between atoms: _210  and  _212
REMARK   96  A    between atoms: _212  and  _213
REMARK   97  A    between atoms: _212  and  _215
REMARK   98  A    between atoms: _215  and  _216
REMARK   99  A    between atoms: _216  and  _217
REMARK  100  A    between atoms: _219  and  _221
REMARK  101  A    between atoms: _221  and  _222
REMARK  102  A    between atoms: _221  and  _224
REMARK  103  A    between atoms: _224  and  _225
REMARK  104  A    between atoms: _228  and  _230
REMARK  105  A    between atoms: _230  and  _231
REMARK  106  A    between atoms: _234  and  _236
REMARK  107  A    between atoms: _236  and  _237
REMARK  108  A    between atoms: _236  and  _239
REMARK  109  A    between atoms: _239  and  _240
REMARK  110  A    between atoms: _243  and  _245
REMARK  111  A    between atoms: _245  and  _246
REMARK  112  A    between atoms: _245  and  _248
REMARK  113  A    between atoms: _248  and  _249
REMARK  114  A    between atoms: _252  and  _254
REMARK  115  A    between atoms: _254  and  _255
REMARK  116  A    between atoms: _254  and  _257
REMARK  117  A    between atoms: _257  and  _258
REMARK  118  A    between atoms: _263  and  _265
REMARK  119  A    between atoms: _265  and  _266
REMARK  120  A    between atoms: _265  and  _268
REMARK  121  A    between atoms: _268  and  _269
REMARK  122  A    between atoms: _274  and  _276
REMARK  123  A    between atoms: _276  and  _277
REMARK  124  A    between atoms: _276  and  _279
REMARK  125  A    between atoms: _279  and  _280
REMARK  126  A    between atoms: _283  and  _285
REMARK  127  A    between atoms: _285  and  _286
REMARK  128  A    between atoms: _288  and  _290
REMARK  129  A    between atoms: _290  and  _291
REMARK  130  A    between atoms: _290  and  _293
REMARK  131  A    between atoms: _293  and  _294
REMARK  132  A    between atoms: _297  and  _299
REMARK  133  A    between atoms: _299  and  _300
REMARK  134  A    between atoms: _299  and  _302
REMARK  135  A    between atoms: _302  and  _303
REMARK  136  A    between atoms: _303  and  _304
REMARK  137  A    between atoms: _304  and  _305
REMARK  138  A    between atoms: _305  and  _306
REMARK  139  A    between atoms: _310  and  _312
REMARK  140  A    between atoms: _312  and  _313
REMARK  141  A    between atoms: _312  and  _315
REMARK  142  A    between atoms: _315  and  _316
REMARK  143  A    between atoms: _319  and  _321
REMARK  144  A    between atoms: _321  and  _322
REMARK  145  A    between atoms: _324  and  _326
REMARK  146  A    between atoms: _326  and  _327
REMARK  147  A    between atoms: _326  and  _329
REMARK  148  A    between atoms: _329  and  _330
REMARK  149  A    between atoms: _336  and  _338
REMARK  150  A    between atoms: _338  and  _339
REMARK  151  A    between atoms: _341  and  _343
REMARK  152  A    between atoms: _343  and  _344
REMARK  153  A    between atoms: _343  and  _346
REMARK  154  A    between atoms: _349  and  _351
REMARK  155  A    between atoms: _351  and  _352
REMARK  156  A    between atoms: _354  and  _356
REMARK  157  A    between atoms: _356  and  _357
REMARK  158  A    between atoms: _356  and  _359
REMARK  159  A    between atoms: _359  and  _360
REMARK  160  A    between atoms: _366  and  _368
REMARK  161  A    between atoms: _368  and  _369
REMARK  162  A    between atoms: _368  and  _371
REMARK  163  A    between atoms: _371  and  _372
REMARK  164  A    between atoms: _377  and  _378
REMARK  165  A    between atoms: _380  and  _382
REMARK  166  A    between atoms: _382  and  _383
REMARK  167  A    between atoms: _382  and  _385
REMARK  168  A    between atoms: _385  and  _386
REMARK  169  A    between atoms: _388  and  _390
REMARK  170  A    between atoms: _390  and  _391
REMARK  171  A    between atoms: _394  and  _396
REMARK  172  A    between atoms: _396  and  _397
REMARK  173  A    between atoms: _396  and  _399
REMARK  174  A    between atoms: _402  and  _404
REMARK  175  A    between atoms: _404  and  _405
REMARK  176  A    between atoms: _404  and  _407
REMARK  177  A    between atoms: _407  and  _408
REMARK  178  A    between atoms: _411  and  _413
REMARK  179  A    between atoms: _413  and  _414
REMARK  180  A    between atoms: _413  and  _416
REMARK  181  A    between atoms: _419  and  _421
REMARK  182  A    between atoms: _421  and  _422
REMARK  183  A    between atoms: _421  and  _424
REMARK  184  A    between atoms: _424  and  _425
REMARK  185  A    between atoms: _428  and  _430
REMARK  186  A    between atoms: _430  and  _431
REMARK  187  A    between atoms: _430  and  _433
REMARK  188  A    between atoms: _433  and  _434
REMARK  189  A    between atoms: _437  and  _439
REMARK  190  A    between atoms: _439  and  _440
REMARK  191  A    between atoms: _439  and  _442
REMARK  192  A    between atoms: _442  and  _443
REMARK  193  A    between atoms: _443  and  _444
REMARK  194  A    between atoms: _444  and  _445
REMARK  195  A    between atoms: _445  and  _446
REMARK  196  A    between atoms: _450  and  _452
REMARK  197  A    between atoms: _452  and  _453
REMARK  198  A    between atoms: _452  and  _455
REMARK  199  A    between atoms: _455  and  _456
REMARK  200  A    between atoms: _461  and  _463
REMARK  201  A    between atoms: _463  and  _464
REMARK  202  A    between atoms: _463  and  _466
REMARK  203  A    between atoms: _466  and  _467
REMARK  204  A    between atoms: _477  and  _479
REMARK  205  A    between atoms: _479  and  _480
REMARK  206  A    between atoms: _482  and  _484
REMARK  207  A    between atoms: _484  and  _485
REMARK  208  A    between atoms: _484  and  _487
REMARK  209  A    between atoms: _487  and  _488
REMARK  210  A    between atoms: _491  and  _493
REMARK  211  A    between atoms: _493  and  _494
REMARK  212  A    between atoms: _493  and  _496
REMARK  213  A    between atoms: _496  and  _497
REMARK  214  A    between atoms: _497  and  _498
REMARK  215  A    between atoms: _498  and  _499
REMARK  216  A    between atoms: _499  and  _500
REMARK  217  A    between atoms: _504  and  _506
REMARK  218  A    between atoms: _506  and  _507
REMARK  219  A    between atoms: _506  and  _509
REMARK                            x       y       z     vdW  Elec       q    Type
REMARK                         _______ _______ _______ _____ _____    ______ ____
ROOT
ATOM      1  CA  LYS A   3      33.070 -44.181  56.395  0.00  0.00    +0.149 C 
ENDROOT
BRANCH   1   2
ATOM      2  C   LYS A   3      32.855 -45.643  56.781  0.00  0.00    +0.241 C 
ATOM      3  N   VAL A   4      32.128 -45.858  57.873  0.00  0.00    -0.298 N 
ATOM      4  H   VAL A   4      31.768 -45.037  58.400  0.00  0.00    +0.150 HD
ATOM      5  O   LYS A   3      33.421 -46.541  56.153  0.00  0.00    -0.273 OA
BRANCH   3   6
ATOM      6  CA  VAL A   4      31.813 -47.196  58.366  0.00  0.00    +0.137 C 
BRANCH   6   7
ATOM      7  CB  VAL A   4      31.960 -47.287  59.920  0.00  0.00    +0.026 C 
ATOM      8  CG2 VAL A   4      31.523 -48.652  60.429  0.00  0.00    +0.002 C 
ATOM      9  CG1 VAL A   4      33.397 -47.031  60.337  0.00  0.00    +0.002 C 
ENDBRANCH   6   7
BRANCH   6  10
ATOM     10  C   VAL A   4      30.366 -47.507  57.966  0.00  0.00    +0.227 C 
ATOM     11  O   VAL A   4      29.443 -46.809  58.372  0.00  0.00    -0.286 OA
ENDBRANCH   6  10
ENDBRANCH   3   6
ENDBRANCH   1   2
BRANCH   1  14
ATOM     12  C   THR A   2      34.978 -42.877  57.143  0.00  0.00    +0.243 C 
ATOM     13  O   THR A   2      34.286 -42.026  57.692  0.00  0.00    -0.273 OA
ATOM     14  N   LYS A   3      34.486 -43.927  56.504  0.00  0.00    -0.297 N 
ATOM     15  H   LYS A   3      35.148 -44.597  56.062  0.00  0.00    +0.150 HD
BRANCH  12  16
ATOM     16  CA  THR A   2      36.478 -42.762  57.141  0.00  0.00    +0.176 C 
BRANCH  16  18
ATOM     17  C   GLY A   1      37.841 -40.952  56.285  0.00  0.00    +0.240 C 
ATOM     18  N   THR A   2      36.822 -41.357  57.030  0.00  0.00    -0.295 N 
ATOM     19  H   THR A   2      36.257 -40.652  57.546  0.00  0.00    +0.150 HD
ATOM     20  O   GLY A   1      38.512 -41.714  55.597  0.00  0.00    -0.274 OA
BRANCH  17  21
ATOM     21  CA  GLY A   1      38.108 -39.468  56.285  0.00  0.00    +0.169 C 
BRANCH  21  22
ATOM     22  N   GLY A   1      38.944 -39.029  55.187  0.00  0.00    -0.236 NA
ATOM     23  H   GLY A   1      39.763 -39.596  54.890  0.00  0.00    +0.142 HD
ENDBRANCH  21  22
ENDBRANCH  17  21
ENDBRANCH  16  18
BRANCH  16  24
ATOM     24  CB  THR A   2      37.082 -43.379  58.435  0.00  0.00    +0.137 C 
ATOM     25  CG2 THR A   2      36.655 -44.825  58.612  0.00  0.00    +0.034 C 
BRANCH  24  26
ATOM     26  OG1 THR A   2      38.511 -43.325  58.352  0.00  0.00    -0.382 OA
ATOM     27  HG1 THR A   2      38.814 -43.839  57.562  0.00  0.00    +0.210 HD
ENDBRANCH  24  26
ENDBRANCH  16  24
ENDBRANCH  12  16
ENDBRANCH   1  14
BRANCH   1  28
ATOM     28  CB  LYS A   3      32.637 -43.905  54.948  0.00  0.00    +0.029 C 
BRANCH  28  29
ATOM     29  CG  LYS A   3      31.212 -44.252  54.614  0.00  0.00    +0.000 C 
BRANCH  29  30
ATOM     30  CD  LYS A   3      30.792 -43.666  53.254  0.00  0.00    -0.024 C 
BRANCH  30  31
ATOM     31  CE  LYS A   3      31.679 -44.131  52.117  0.00  0.00    -0.086 C 
BRANCH  31  32
ATOM     32  NZ  LYS A   3      31.204 -43.612  50.792  0.00  0.00    +0.380 N 
ATOM     33  HZ1 LYS A   3      31.209 -42.572  50.806  0.00  0.00    -0.089 HD
ATOM     34  HZ2 LYS A   3      30.238 -43.953  50.614  0.00  0.00    -0.089 HD
ATOM     35  HZ3 LYS A   3      31.837 -43.952  50.041  0.00  0.00    -0.089 HD
ENDBRANCH  31  32
ENDBRANCH  30  31
ENDBRANCH  29  30
ENDBRANCH  28  29
ENDBRANCH   1  28
TORSDOF 16
REMARK  Name = ../refined-set-2016/1yet/1yet_pocket.pdb
REMARK  219 active torsions:
REMARK  status: ('A' for Active; 'I' for Inactive)
REMARK    1  A    between atoms: _1  and  _3
REMARK    2  A    between atoms: _3  and  _4
REMARK    3  A    between atoms: _3  and  _6
REMARK    4  A    between atoms: _6  and  _7
REMARK    5  A    between atoms: _10  and  _12
REMARK    6  A    between atoms: _12  and  _13
REMARK    7  A    between atoms: _12  and  _15
REMARK    8  A    between atoms: _15  and  _16
REMARK    9  A    between atoms: _19  and  _21
REMARK   10  A    between atoms: _21  and  _22
REMARK   11  A    between atoms: _21  and  _24
REMARK   12  A    between atoms: _24  and  _25
REMARK   13  A    between atoms: _25  and  _26
REMARK   14  A    between atoms: _29  and  _31
REMARK   15  A    between atoms: _31  and  _32
REMARK   16  A    between atoms: _31  and  _34
REMARK   17  A    between atoms: _34  and  _35
REMARK   18  A    between atoms: _38  and  _40
REMARK   19  A    between atoms: _40  and  _41
REMARK   20  A    between atoms: _40  and  _43
REMARK   21  A    between atoms: _43  and  _44
REMARK   22  A    between atoms: _47  and  _49
REMARK   23  A    between atoms: _49  and  _50
REMARK   24  A    between atoms: _49  and  _52
REMARK   25  A    between atoms: _52  and  _53
REMARK   26  A    between atoms: _55  and  _57
REMARK   27  A    between atoms: _57  and  _58
REMARK   28  A    between atoms: _57  and  _60
REMARK   29  A    between atoms: _60  and  _61
REMARK   30  A    between atoms: _66  and  _68
REMARK   31  A    between atoms: _68  and  _69
REMARK   32  A    between atoms: _68  and  _71
REMARK   33  A    between atoms: _71  and  _72
REMARK   34  A    between atoms: _74  and  _76
REMARK   35  A    between atoms: _76  and  _77
REMARK   36  A    between atoms: _76  and  _79
REMARK   37  A    between atoms: _79  and  _80
REMARK   38  A    between atoms: _82  and  _84
REMARK   39  A    between atoms: _84  and  _85
REMARK   40  A    between atoms: _84  and  _87
REMARK   41  A    between atoms: _87  and  _88
REMARK   42  A    between atoms: _91  and  _93
REMARK   43  A    between atoms: _93  and  _94
REMARK   44  A    between atoms: _97  and  _99
REMARK   45  A    between atoms: _99  and  _100
REMARK   46  A    between atoms: _99  and  _102
REMARK   47  A    between atoms: _102  and  _103
REMARK   48  A    between atoms: _106  and  _108
REMARK   49  A    between atoms: _108  and  _109
REMARK   50  A    between atoms: _108  and  _111
REMARK   51  A    between atoms: _111  and  _112
REMARK   52  A    between atoms: _115  and  _117
REMARK   53  A    between atoms: _117  and  _118
REMARK   54  A    between atoms: _117  and  _120
REMARK   55  A    between atoms: _120  and  _121
REMARK   56  A    between atoms: _121  and  _122
REMARK   57  A    between atoms: _122  and  _123
REMARK   58  A    between atoms: _123  and  _124
REMARK   59  A    between atoms: _128  and  _130
REMARK   60  A    between atoms: _130  and  _131
REMARK   61  A    between atoms: _130  and  _133
REMARK   62  A    between atoms: _133  and  _134
REMARK   63  A    between atoms: _137  and  _139
REMARK   64  A    between atoms: _139  and  _140
REMARK   65  A    between atoms: _139  and  _142
REMARK   66  A    between atoms: _142  and  _143
REMARK   67  A    between atoms: _143  and  _144
REMARK   68  A    between atoms: _147  and  _149
REMARK   69  A    between atoms: _149  and  _150
REMARK   70  A    between atoms: _149  and  _152
REMARK   71  A    between atoms: _152  and  _153
REMARK   72  A    between atoms: _156  and  _158
REMARK   73  A    between atoms: _158  and  _159
REMARK   74  A    between atoms: _158  and  _161
REMARK   75  A    between atoms: _161  and  _162
REMARK   76  A    between atoms: _165  and  _167
REMARK   77  A    between atoms: _167  and  _168
REMARK   78  A    between atoms: _167  and  _170
REMARK   79  A    between atoms: _173  and  _175
REMARK   80  A    between atoms: _175  and  _176
REMARK   81  A    between atoms: _175  and  _178
REMARK   82  A    between atoms: _178  and  _179
REMARK   83  A    between atoms: _182  and  _184
REMARK   84  A    between atoms: _184  and  _185
REMARK   85  A    between atoms: _184  and  _187
REMARK   86  A    between atoms: _187  and  _188
REMARK   87  A    between atoms: _191  and  _193
REMARK   88  A    between atoms: _193  and  _194
REMARK   89  A    between atoms: _196  and  _198
REMARK   90  A    between atoms: _198  and  _199
REMARK   91  A    between atoms: _198  and  _201
REMARK   92  A    between atoms: _201  and  _202
REMARK   93  A    between atoms: _205  and  _207
REMARK   94  A    between atoms: _207  and  _208
REMARK   95  A    between atoms: _210  and  _212
REMARK   96  A    between atoms: _212  and  _213
REMARK   97  A    between atoms: _212  and  _215
REMARK   98  A    between atoms: _215  and  _216
REMARK   99  A    between atoms: _216  and  _217
REMARK  100  A    between atoms: _219  and  _221
REMARK  101  A    between atoms: _221  and  _222
REMARK  102  A    between atoms: _221  and  _224
REMARK  103  A    between atoms: _224  and  _225
REMARK  104  A    between atoms: _228  and  _230
REMARK  105  A    between atoms: _230  and  _231
REMARK  106  A    between atoms: _234  and  _236
REMARK  107  A    between atoms: _236  and  _237
REMARK  108  A    between atoms: _236  and  _239
REMARK  109  A    between atoms: _239  and  _240
REMARK  110  A    between atoms: _243  and  _245
REMARK  111  A    between atoms: _245  and  _246
REMARK  112  A    between atoms: _245  and  _248
REMARK  113  A    between atoms: _248  and  _249
REMARK  114  A    between atoms: _252  and  _254
REMARK  115  A    between atoms: _254  and  _255
REMARK  116  A    between atoms: _254  and  _257
REMARK  117  A    between atoms: _257  and  _258
REMARK  118  A    between atoms: _263  and  _265
REMARK  119  A    between atoms: _265  and  _266
REMARK  120  A    between atoms: _265  and  _268
REMARK  121  A    between atoms: _268  and  _269
REMARK  122  A    between atoms: _274  and  _276
REMARK  123  A    between atoms: _276  and  _277
REMARK  124  A    between atoms: _276  and  _279
REMARK  125  A    between atoms: _279  and  _280
REMARK  126  A    between atoms: _283  and  _285
REMARK  127  A    between atoms: _285  and  _286
REMARK  128  A    between atoms: _288  and  _290
REMARK  129  A    between atoms: _290  and  _291
REMARK  130  A    between atoms: _290  and  _293
REMARK  131  A    between atoms: _293  and  _294
REMARK  132  A    between atoms: _297  and  _299
REMARK  133  A    between atoms: _299  and  _300
REMARK  134  A    between atoms: _299  and  _302
REMARK  135  A    between atoms: _302  and  _303
REMARK  136  A    between atoms: _303  and  _304
REMARK  137  A    between atoms: _304  and  _305
REMARK  138  A    between atoms: _305  and  _306
REMARK  139  A    between atoms: _310  and  _312
REMARK  140  A    between atoms: _312  and  _313
REMARK  141  A    between atoms: _312  and  _315
REMARK  142  A    between atoms: _315  and  _316
REMARK  143  A    between atoms: _319  and  _321
REMARK  144  A    between atoms: _321  and  _322
REMARK  145  A    between atoms: _324  and  _326
REMARK  146  A    between atoms: _326  and  _327
REMARK  147  A    between atoms: _326  and  _329
REMARK  148  A    between atoms: _329  and  _330
REMARK  149  A    between atoms: _336  and  _338
REMARK  150  A    between atoms: _338  and  _339
REMARK  151  A    between atoms: _341  and  _343
REMARK  152  A    between atoms: _343  and  _344
REMARK  153  A    between atoms: _343  and  _346
REMARK  154  A    between atoms: _349  and  _351
REMARK  155  A    between atoms: _351  and  _352
REMARK  156  A    between atoms: _354  and  _356
REMARK  157  A    between atoms: _356  and  _357
REMARK  158  A    between atoms: _356  and  _359
REMARK  159  A    between atoms: _359  and  _360
REMARK  160  A    between atoms: _366  and  _368
REMARK  161  A    between atoms: _368  and  _369
REMARK  162  A    between atoms: _368  and  _371
REMARK  163  A    between atoms: _371  and  _372
REMARK  164  A    between atoms: _377  and  _378
REMARK  165  A    between atoms: _380  and  _382
REMARK  166  A    between atoms: _382  and  _383
REMARK  167  A    between atoms: _382  and  _385
REMARK  168  A    between atoms: _385  and  _386
REMARK  169  A    between atoms: _388  and  _390
REMARK  170  A    between atoms: _390  and  _391
REMARK  171  A    between atoms: _394  and  _396
REMARK  172  A    between atoms: _396  and  _397
REMARK  173  A    between atoms: _396  and  _399
REMARK  174  A    between atoms: _402  and  _404
REMARK  175  A    between atoms: _404  and  _405
REMARK  176  A    between atoms: _404  and  _407
REMARK  177  A    between atoms: _407  and  _408
REMARK  178  A    between atoms: _411  and  _413
REMARK  179  A    between atoms: _413  and  _414
REMARK  180  A    between atoms: _413  and  _416
REMARK  181  A    between atoms: _419  and  _421
REMARK  182  A    between atoms: _421  and  _422
REMARK  183  A    between atoms: _421  and  _424
REMARK  184  A    between atoms: _424  and  _425
REMARK  185  A    between atoms: _428  and  _430
REMARK  186  A    between atoms: _430  and  _431
REMARK  187  A    between atoms: _430  and  _433
REMARK  188  A    between atoms: _433  and  _434
REMARK  189  A    between atoms: _437  and  _439
REMARK  190  A    between atoms: _439  and  _440
REMARK  191  A    between atoms: _439  and  _442
REMARK  192  A    between atoms: _442  and  _443
REMARK  193  A    between atoms: _443  and  _444
REMARK  194  A    between atoms: _444  and  _445
REMARK  195  A    between atoms: _445  and  _446
REMARK  196  A    between atoms: _450  and  _452
REMARK  197  A    between atoms: _452  and  _453
REMARK  198  A    between atoms: _452  and  _455
REMARK  199  A    between atoms: _455  and  _456
REMARK  200  A    between atoms: _461  and  _463
REMARK  201  A    between atoms: _463  and  _464
REMARK  202  A    between atoms: _463  and  _466
REMARK  203  A    between atoms: _466  and  _467
REMARK  204  A    between atoms: _477  and  _479
REMARK  205  A    between atoms: _479  and  _480
REMARK  206  A    between atoms: _482  and  _484
REMARK  207  A    between atoms: _484  and  _485
REMARK  208  A    between atoms: _484  and  _487
REMARK  209  A    between atoms: _487  and  _488
REMARK  210  A    between atoms: _491  and  _493
REMARK  211  A    between atoms: _493  and  _494
REMARK  212  A    between atoms: _493  and  _496
REMARK  213  A    between atoms: _496  and  _497
REMARK  214  A    between atoms: _497  and  _498
REMARK  215  A    between atoms: _498  and  _499
REMARK  216  A    between atoms: _499  and  _500
REMARK  217  A    between atoms: _504  and  _506
REMARK  218  A    between atoms: _506  and  _507
REMARK  219  A    between atoms: _506  and  _509
REMARK                            x       y       z     vdW  Elec       q    Type
REMARK                         _______ _______ _______ _____ _____    ______ ____
ROOT
ATOM      1  O   HOH     1      49.148 -42.965  58.828  0.00  0.00    +0.000 OA
ENDROOT
TORSDOF 0
REMARK  Name = ../refined-set-2016/1yet/1yet_pocket.pdb
REMARK  219 active torsions:
REMARK  status: ('A' for Active; 'I' for Inactive)
REMARK    1  A    between atoms: _1  and  _3
REMARK    2  A    between atoms: _3  and  _4
REMARK    3  A    between atoms: _3  and  _6
REMARK    4  A    between atoms: _6  and  _7
REMARK    5  A    between atoms: _10  and  _12
REMARK    6  A    between atoms: _12  and  _13
REMARK    7  A    between atoms: _12  and  _15
REMARK    8  A    between atoms: _15  and  _16
REMARK    9  A    between atoms: _19  and  _21
REMARK   10  A    between atoms: _21  and  _22
REMARK   11  A    between atoms: _21  and  _24
REMARK   12  A    between atoms: _24  and  _25
REMARK   13  A    between atoms: _25  and  _26
REMARK   14  A    between atoms: _29  and  _31
REMARK   15  A    between atoms: _31  and  _32
REMARK   16  A    between atoms: _31  and  _34
REMARK   17  A    between atoms: _34  and  _35
REMARK   18  A    between atoms: _38  and  _40
REMARK   19  A    between atoms: _40  and  _41
REMARK   20  A    between atoms: _40  and  _43
REMARK   21  A    between atoms: _43  and  _44
REMARK   22  A    between atoms: _47  and  _49
REMARK   23  A    between atoms: _49  and  _50
REMARK   24  A    between atoms: _49  and  _52
REMARK   25  A    between atoms: _52  and  _53
REMARK   26  A    between atoms: _55  and  _57
REMARK   27  A    between atoms: _57  and  _58
REMARK   28  A    between atoms: _57  and  _60
REMARK   29  A    between atoms: _60  and  _61
REMARK   30  A    between atoms: _66  and  _68
REMARK   31  A    between atoms: _68  and  _69
REMARK   32  A    between atoms: _68  and  _71
REMARK   33  A    between atoms: _71  and  _72
REMARK   34  A    between atoms: _74  and  _76
REMARK   35  A    between atoms: _76  and  _77
REMARK   36  A    between atoms: _76  and  _79
REMARK   37  A    between atoms: _79  and  _80
REMARK   38  A    between atoms: _82  and  _84
REMARK   39  A    between atoms: _84  and  _85
REMARK   40  A    between atoms: _84  and  _87
REMARK   41  A    between atoms: _87  and  _88
REMARK   42  A    between atoms: _91  and  _93
REMARK   43  A    between atoms: _93  and  _94
REMARK   44  A    between atoms: _97  and  _99
REMARK   45  A    between atoms: _99  and  _100
REMARK   46  A    between atoms: _99  and  _102
REMARK   47  A    between atoms: _102  and  _103
REMARK   48  A    between atoms: _106  and  _108
REMARK   49  A    between atoms: _108  and  _109
REMARK   50  A    between atoms: _108  and  _111
REMARK   51  A    between atoms: _111  and  _112
REMARK   52  A    between atoms: _115  and  _117
REMARK   53  A    between atoms: _117  and  _118
REMARK   54  A    between atoms: _117  and  _120
REMARK   55  A    between atoms: _120  and  _121
REMARK   56  A    between atoms: _121  and  _122
REMARK   57  A    between atoms: _122  and  _123
REMARK   58  A    between atoms: _123  and  _124
REMARK   59  A    between atoms: _128  and  _130
REMARK   60  A    between atoms: _130  and  _131
REMARK   61  A    between atoms: _130  and  _133
REMARK   62  A    between atoms: _133  and  _134
REMARK   63  A    between atoms: _137  and  _139
REMARK   64  A    between atoms: _139  and  _140
REMARK   65  A    between atoms: _139  and  _142
REMARK   66  A    between atoms: _142  and  _143
REMARK   67  A    between atoms: _143  and  _144
REMARK   68  A    between atoms: _147  and  _149
REMARK   69  A    between atoms: _149  and  _150
REMARK   70  A    between atoms: _149  and  _152
REMARK   71  A    between atoms: _152  and  _153
REMARK   72  A    between atoms: _156  and  _158
REMARK   73  A    between atoms: _158  and  _159
REMARK   74  A    between atoms: _158  and  _161
REMARK   75  A    between atoms: _161  and  _162
REMARK   76  A    between atoms: _165  and  _167
REMARK   77  A    between atoms: _167  and  _168
REMARK   78  A    between atoms: _167  and  _170
REMARK   79  A    between atoms: _173  and  _175
REMARK   80  A    between atoms: _175  and  _176
REMARK   81  A    between atoms: _175  and  _178
REMARK   82  A    between atoms: _178  and  _179
REMARK   83  A    between atoms: _182  and  _184
REMARK   84  A    between atoms: _184  and  _185
REMARK   85  A    between atoms: _184  and  _187
REMARK   86  A    between atoms: _187  and  _188
REMARK   87  A    between atoms: _191  and  _193
REMARK   88  A    between atoms: _193  and  _194
REMARK   89  A    between atoms: _196  and  _198
REMARK   90  A    between atoms: _198  and  _199
REMARK   91  A    between atoms: _198  and  _201
REMARK   92  A    between atoms: _201  and  _202
REMARK   93  A    between atoms: _205  and  _207
REMARK   94  A    between atoms: _207  and  _208
REMARK   95  A    between atoms: _210  and  _212
REMARK   96  A    between atoms: _212  and  _213
REMARK   97  A    between atoms: _212  and  _215
REMARK   98  A    between atoms: _215  and  _216
REMARK   99  A    between atoms: _216  and  _217
REMARK  100  A    between atoms: _219  and  _221
REMARK  101  A    between atoms: _221  and  _222
REMARK  102  A    between atoms: _221  and  _224
REMARK  103  A    between atoms: _224  and  _225
REMARK  104  A    between atoms: _228  and  _230
REMARK  105  A    between atoms: _230  and  _231
REMARK  106  A    between atoms: _234  and  _236
REMARK  107  A    between atoms: _236  and  _237
REMARK  108  A    between atoms: _236  and  _239
REMARK  109  A    between atoms: _239  and  _240
REMARK  110  A    between atoms: _243  and  _245
REMARK  111  A    between atoms: _245  and  _246
REMARK  112  A    between atoms: _245  and  _248
REMARK  113  A    between atoms: _248  and  _249
REMARK  114  A    between atoms: _252  and  _254
REMARK  115  A    between atoms: _254  and  _255
REMARK  116  A    between atoms: _254  and  _257
REMARK  117  A    between atoms: _257  and  _258
REMARK  118  A    between atoms: _263  and  _265
REMARK  119  A    between atoms: _265  and  _266
REMARK  120  A    between atoms: _265  and  _268
REMARK  121  A    between atoms: _268  and  _269
REMARK  122  A    between atoms: _274  and  _276
REMARK  123  A    between atoms: _276  and  _277
REMARK  124  A    between atoms: _276  and  _279
REMARK  125  A    between atoms: _279  and  _280
REMARK  126  A    between atoms: _283  and  _285
REMARK  127  A    between atoms: _285  and  _286
REMARK  128  A    between atoms: _288  and  _290
REMARK  129  A    between atoms: _290  and  _291
REMARK  130  A    between atoms: _290  and  _293
REMARK  131  A    between atoms: _293  and  _294
REMARK  132  A    between atoms: _297  and  _299
REMARK  133  A    between atoms: _299  and  _300
REMARK  134  A    between atoms: _299  and  _302
REMARK  135  A    between atoms: _302  and  _303
REMARK  136  A    between atoms: _303  and  _304
REMARK  137  A    between atoms: _304  and  _305
REMARK  138  A    between atoms: _305  and  _306
REMARK  139  A    between atoms: _310  and  _312
REMARK  140  A    between atoms: _312  and  _313
REMARK  141  A    between atoms: _312  and  _315
REMARK  142  A    between atoms: _315  and  _316
REMARK  143  A    between atoms: _319  and  _321
REMARK  144  A    between atoms: _321  and  _322
REMARK  145  A    between atoms: _324  and  _326
REMARK  146  A    between atoms: _326  and  _327
REMARK  147  A    between atoms: _326  and  _329
REMARK  148  A    between atoms: _329  and  _330
REMARK  149  A    between atoms: _336  and  _338
REMARK  150  A    between atoms: _338  and  _339
REMARK  151  A    between atoms: _341  and  _343
REMARK  152  A    between atoms: _343  and  _344
REMARK  153  A    between atoms: _343  and  _346
REMARK  154  A    between atoms: _349  and  _351
REMARK  155  A    between atoms: _351  and  _352
REMARK  156  A    between atoms: _354  and  _356
REMARK  157  A    between atoms: _356  and  _357
REMARK  158  A    between atoms: _356  and  _359
REMARK  159  A    between atoms: _359  and  _360
REMARK  160  A    between atoms: _366  and  _368
REMARK  161  A    between atoms: _368  and  _369
REMARK  162  A    between atoms: _368  and  _371
REMARK  163  A    between atoms: _371  and  _372
REMARK  164  A    between atoms: _377  and  _378
REMARK  165  A    between atoms: _380  and  _382
REMARK  166  A    between atoms: _382  and  _383
REMARK  167  A    between atoms: _382  and  _385
REMARK  168  A    between atoms: _385  and  _386
REMARK  169  A    between atoms: _388  and  _390
REMARK  170  A    between atoms: _390  and  _391
REMARK  171  A    between atoms: _394  and  _396
REMARK  172  A    between atoms: _396  and  _397
REMARK  173  A    between atoms: _396  and  _399
REMARK  174  A    between atoms: _402  and  _404
REMARK  175  A    between atoms: _404  and  _405
REMARK  176  A    between atoms: _404  and  _407
REMARK  177  A    between atoms: _407  and  _408
REMARK  178  A    between atoms: _411  and  _413
REMARK  179  A    between atoms: _413  and  _414
REMARK  180  A    between atoms: _413  and  _416
REMARK  181  A    between atoms: _419  and  _421
REMARK  182  A    between atoms: _421  and  _422
REMARK  183  A    between atoms: _421  and  _424
REMARK  184  A    between atoms: _424  and  _425
REMARK  185  A    between atoms: _428  and  _430
REMARK  186  A    between atoms: _430  and  _431
REMARK  187  A    between atoms: _430  and  _433
REMARK  188  A    between atoms: _433  and  _434
REMARK  189  A    between atoms: _437  and  _439
REMARK  190  A    between atoms: _439  and  _440
REMARK  191  A    between atoms: _439  and  _442
REMARK  192  A    between atoms: _442  and  _443
REMARK  193  A    between atoms: _443  and  _444
REMARK  194  A    between atoms: _444  and  _445
REMARK  195  A    between atoms: _445  and  _446
REMARK  196  A    between atoms: _450  and  _452
REMARK  197  A    between atoms: _452  and  _453
REMARK  198  A    between atoms: _452  and  _455
REMARK  199  A    between atoms: _455  and  _456
REMARK  200  A    between atoms: _461  and  _463
REMARK  201  A    between atoms: _463  and  _464
REMARK  202  A    between atoms: _463  and  _466
REMARK  203  A    between atoms: _466  and  _467
REMARK  204  A    between atoms: _477  and  _479
REMARK  205  A    between atoms: _479  and  _480
REMARK  206  A    between atoms: _482  and  _484
REMARK  207  A    between atoms: _484  and  _485
REMARK  208  A    between atoms: _484  and  _487
REMARK  209  A    between atoms: _487  and  _488
REMARK  210  A    between atoms: _491  and  _493
REMARK  211  A    between atoms: _493  and  _494
REMARK  212  A    between atoms: _493  and  _496
REMARK  213  A    between atoms: _496  and  _497
REMARK  214  A    between atoms: _497  and  _498
REMARK  215  A    between atoms: _498  and  _499
REMARK  216  A    between atoms: _499  and  _500
REMARK  217  A    between atoms: _504  and  _506
REMARK  218  A    between atoms: _506  and  _507
REMARK  219  A    between atoms: _506  and  _509
REMARK                            x       y       z     vdW  Elec       q    Type
REMARK                         _______ _______ _______ _____ _____    ______ ____
ROOT
ATOM      1  O   HOH     1      42.794 -38.247  68.674  0.00  0.00    +0.000 OA
ENDROOT
TORSDOF 0
REMARK  Name = ../refined-set-2016/1yet/1yet_pocket.pdb
REMARK  219 active torsions:
REMARK  status: ('A' for Active; 'I' for Inactive)
REMARK    1  A    between atoms: _1  and  _3
REMARK    2  A    between atoms: _3  and  _4
REMARK    3  A    between atoms: _3  and  _6
REMARK    4  A    between atoms: _6  and  _7
REMARK    5  A    between atoms: _10  and  _12
REMARK    6  A    between atoms: _12  and  _13
REMARK    7  A    between atoms: _12  and  _15
REMARK    8  A    between atoms: _15  and  _16
REMARK    9  A    between atoms: _19  and  _21
REMARK   10  A    between atoms: _21  and  _22
REMARK   11  A    between atoms: _21  and  _24
REMARK   12  A    between atoms: _24  and  _25
REMARK   13  A    between atoms: _25  and  _26
REMARK   14  A    between atoms: _29  and  _31
REMARK   15  A    between atoms: _31  and  _32
REMARK   16  A    between atoms: _31  and  _34
REMARK   17  A    between atoms: _34  and  _35
REMARK   18  A    between atoms: _38  and  _40
REMARK   19  A    between atoms: _40  and  _41
REMARK   20  A    between atoms: _40  and  _43
REMARK   21  A    between atoms: _43  and  _44
REMARK   22  A    between atoms: _47  and  _49
REMARK   23  A    between atoms: _49  and  _50
REMARK   24  A    between atoms: _49  and  _52
REMARK   25  A    between atoms: _52  and  _53
REMARK   26  A    between atoms: _55  and  _57
REMARK   27  A    between atoms: _57  and  _58
REMARK   28  A    between atoms: _57  and  _60
REMARK   29  A    between atoms: _60  and  _61
REMARK   30  A    between atoms: _66  and  _68
REMARK   31  A    between atoms: _68  and  _69
REMARK   32  A    between atoms: _68  and  _71
REMARK   33  A    between atoms: _71  and  _72
REMARK   34  A    between atoms: _74  and  _76
REMARK   35  A    between atoms: _76  and  _77
REMARK   36  A    between atoms: _76  and  _79
REMARK   37  A    between atoms: _79  and  _80
REMARK   38  A    between atoms: _82  and  _84
REMARK   39  A    between atoms: _84  and  _85
REMARK   40  A    between atoms: _84  and  _87
REMARK   41  A    between atoms: _87  and  _88
REMARK   42  A    between atoms: _91  and  _93
REMARK   43  A    between atoms: _93  and  _94
REMARK   44  A    between atoms: _97  and  _99
REMARK   45  A    between atoms: _99  and  _100
REMARK   46  A    between atoms: _99  and  _102
REMARK   47  A    between atoms: _102  and  _103
REMARK   48  A    between atoms: _106  and  _108
REMARK   49  A    between atoms: _108  and  _109
REMARK   50  A    between atoms: _108  and  _111
REMARK   51  A    between atoms: _111  and  _112
REMARK   52  A    between atoms: _115  and  _117
REMARK   53  A    between atoms: _117  and  _118
REMARK   54  A    between atoms: _117  and  _120
REMARK   55  A    between atoms: _120  and  _121
REMARK   56  A    between atoms: _121  and  _122
REMARK   57  A    between atoms: _122  and  _123
REMARK   58  A    between atoms: _123  and  _124
REMARK   59  A    between atoms: _128  and  _130
REMARK   60  A    between atoms: _130  and  _131
REMARK   61  A    between atoms: _130  and  _133
REMARK   62  A    between atoms: _133  and  _134
REMARK   63  A    between atoms: _137  and  _139
REMARK   64  A    between atoms: _139  and  _140
REMARK   65  A    between atoms: _139  and  _142
REMARK   66  A    between atoms: _142  and  _143
REMARK   67  A    between atoms: _143  and  _144
REMARK   68  A    between atoms: _147  and  _149
REMARK   69  A    between atoms: _149  and  _150
REMARK   70  A    between atoms: _149  and  _152
REMARK   71  A    between atoms: _152  and  _153
REMARK   72  A    between atoms: _156  and  _158
REMARK   73  A    between atoms: _158  and  _159
REMARK   74  A    between atoms: _158  and  _161
REMARK   75  A    between atoms: _161  and  _162
REMARK   76  A    between atoms: _165  and  _167
REMARK   77  A    between atoms: _167  and  _168
REMARK   78  A    between atoms: _167  and  _170
REMARK   79  A    between atoms: _173  and  _175
REMARK   80  A    between atoms: _175  and  _176
REMARK   81  A    between atoms: _175  and  _178
REMARK   82  A    between atoms: _178  and  _179
REMARK   83  A    between atoms: _182  and  _184
REMARK   84  A    between atoms: _184  and  _185
REMARK   85  A    between atoms: _184  and  _187
REMARK   86  A    between atoms: _187  and  _188
REMARK   87  A    between atoms: _191  and  _193
REMARK   88  A    between atoms: _193  and  _194
REMARK   89  A    between atoms: _196  and  _198
REMARK   90  A    between atoms: _198  and  _199
REMARK   91  A    between atoms: _198  and  _201
REMARK   92  A    between atoms: _201  and  _202
REMARK   93  A    between atoms: _205  and  _207
REMARK   94  A    between atoms: _207  and  _208
REMARK   95  A    between atoms: _210  and  _212
REMARK   96  A    between atoms: _212  and  _213
REMARK   97  A    between atoms: _212  and  _215
REMARK   98  A    between atoms: _215  and  _216
REMARK   99  A    between atoms: _216  and  _217
REMARK  100  A    between atoms: _219  and  _221
REMARK  101  A    between atoms: _221  and  _222
REMARK  102  A    between atoms: _221  and  _224
REMARK  103  A    between atoms: _224  and  _225
REMARK  104  A    between atoms: _228  and  _230
REMARK  105  A    between atoms: _230  and  _231
REMARK  106  A    between atoms: _234  and  _236
REMARK  107  A    between atoms: _236  and  _237
REMARK  108  A    between atoms: _236  and  _239
REMARK  109  A    between atoms: _239  and  _240
REMARK  110  A    between atoms: _243  and  _245
REMARK  111  A    between atoms: _245  and  _246
REMARK  112  A    between atoms: _245  and  _248
REMARK  113  A    between atoms: _248  and  _249
REMARK  114  A    between atoms: _252  and  _254
REMARK  115  A    between atoms: _254  and  _255
REMARK  116  A    between atoms: _254  and  _257
REMARK  117  A    between atoms: _257  and  _258
REMARK  118  A    between atoms: _263  and  _265
REMARK  119  A    between atoms: _265  and  _266
REMARK  120  A    between atoms: _265  and  _268
REMARK  121  A    between atoms: _268  and  _269
REMARK  122  A    between atoms: _274  and  _276
REMARK  123  A    between atoms: _276  and  _277
REMARK  124  A    between atoms: _276  and  _279
REMARK  125  A    between atoms: _279  and  _280
REMARK  126  A    between atoms: _283  and  _285
REMARK  127  A    between atoms: _285  and  _286
REMARK  128  A    between atoms: _288  and  _290
REMARK  129  A    between atoms: _290  and  _291
REMARK  130  A    between atoms: _290  and  _293
REMARK  131  A    between atoms: _293  and  _294
REMARK  132  A    between atoms: _297  and  _299
REMARK  133  A    between atoms: _299  and  _300
REMARK  134  A    between atoms: _299  and  _302
REMARK  135  A    between atoms: _302  and  _303
REMARK  136  A    between atoms: _303  and  _304
REMARK  137  A    between atoms: _304  and  _305
REMARK  138  A    between atoms: _305  and  _306
REMARK  139  A    between atoms: _310  and  _312
REMARK  140  A    between atoms: _312  and  _313
REMARK  141  A    between atoms: _312  and  _315
REMARK  142  A    between atoms: _315  and  _316
REMARK  143  A    between atoms: _319  and  _321
REMARK  144  A    between atoms: _321  and  _322
REMARK  145  A    between atoms: _324  and  _326
REMARK  146  A    between atoms: _326  and  _327
REMARK  147  A    between atoms: _326  and  _329
REMARK  148  A    between atoms: _329  and  _330
REMARK  149  A    between atoms: _336  and  _338
REMARK  150  A    between atoms: _338  and  _339
REMARK  151  A    between atoms: _341  and  _343
REMARK  152  A    between atoms: _343  and  _344
REMARK  153  A    between atoms: _343  and  _346
REMARK  154  A    between atoms: _349  and  _351
REMARK  155  A    between atoms: _351  and  _352
REMARK  156  A    between atoms: _354  and  _356
REMARK  157  A    between atoms: _356  and  _357
REMARK  158  A    between atoms: _356  and  _359
REMARK  159  A    between atoms: _359  and  _360
REMARK  160  A    between atoms: _366  and  _368
REMARK  161  A    between atoms: _368  and  _369
REMARK  162  A    between atoms: _368  and  _371
REMARK  163  A    between atoms: _371  and  _372
REMARK  164  A    between atoms: _377  and  _378
REMARK  165  A    between atoms: _380  and  _382
REMARK  166  A    between atoms: _382  and  _383
REMARK  167  A    between atoms: _382  and  _385
REMARK  168  A    between atoms: _385  and  _386
REMARK  169  A    between atoms: _388  and  _390
REMARK  170  A    between atoms: _390  and  _391
REMARK  171  A    between atoms: _394  and  _396
REMARK  172  A    between atoms: _396  and  _397
REMARK  173  A    between atoms: _396  and  _399
REMARK  174  A    between atoms: _402  and  _404
REMARK  175  A    between atoms: _404  and  _405
REMARK  176  A    between atoms: _404  and  _407
REMARK  177  A    between atoms: _407  and  _408
REMARK  178  A    between atoms: _411  and  _413
REMARK  179  A    between atoms: _413  and  _414
REMARK  180  A    between atoms: _413  and  _416
REMARK  181  A    between atoms: _419  and  _421
REMARK  182  A    between atoms: _421  and  _422
REMARK  183  A    between atoms: _421  and  _424
REMARK  184  A    between atoms: _424  and  _425
REMARK  185  A    between atoms: _428  and  _430
REMARK  186  A    between atoms: _430  and  _431
REMARK  187  A    between atoms: _430  and  _433
REMARK  188  A    between atoms: _433  and  _434
REMARK  189  A    between atoms: _437  and  _439
REMARK  190  A    between atoms: _439  and  _440
REMARK  191  A    between atoms: _439  and  _442
REMARK  192  A    between atoms: _442  and  _443
REMARK  193  A    between atoms: _443  and  _444
REMARK  194  A    between atoms: _444  and  _445
REMARK  195  A    between atoms: _445  and  _446
REMARK  196  A    between atoms: _450  and  _452
REMARK  197  A    between atoms: _452  and  _453
REMARK  198  A    between atoms: _452  and  _455
REMARK  199  A    between atoms: _455  and  _456
REMARK  200  A    between atoms: _461  and  _463
REMARK  201  A    between atoms: _463  and  _464
REMARK  202  A    between atoms: _463  and  _466
REMARK  203  A    between atoms: _466  and  _467
REMARK  204  A    between atoms: _477  and  _479
REMARK  205  A    between atoms: _479  and  _480
REMARK  206  A    between atoms: _482  and  _484
REMARK  207  A    between atoms: _484  and  _485
REMARK  208  A    between atoms: _484  and  _487
REMARK  209  A    between atoms: _487  and  _488
REMARK  210  A    between atoms: _491  and  _493
REMARK  211  A    between atoms: _493  and  _494
REMARK  212  A    between atoms: _493  and  _496
REMARK  213  A    between atoms: _496  and  _497
REMARK  214  A    between atoms: _497  and  _498
REMARK  215  A    between atoms: _498  and  _499
REMARK  216  A    between atoms: _499  and  _500
REMARK  217  A    between atoms: _504  and  _506
REMARK  218  A    between atoms: _506  and  _507
REMARK  219  A    between atoms: _506  and  _509
REMARK                            x       y       z     vdW  Elec       q    Type
REMARK                         _______ _______ _______ _____ _____    ______ ____
ROOT
ATOM      1  O   HOH     1      33.720 -44.395  63.126  0.00  0.00    +0.000 OA
ENDROOT
TORSDOF 0
REMARK  Name = ../refined-set-2016/1yet/1yet_pocket.pdb
REMARK  219 active torsions:
REMARK  status: ('A' for Active; 'I' for Inactive)
REMARK    1  A    between atoms: _1  and  _3
REMARK    2  A    between atoms: _3  and  _4
REMARK    3  A    between atoms: _3  and  _6
REMARK    4  A    between atoms: _6  and  _7
REMARK    5  A    between atoms: _10  and  _12
REMARK    6  A    between atoms: _12  and  _13
REMARK    7  A    between atoms: _12  and  _15
REMARK    8  A    between atoms: _15  and  _16
REMARK    9  A    between atoms: _19  and  _21
REMARK   10  A    between atoms: _21  and  _22
REMARK   11  A    between atoms: _21  and  _24
REMARK   12  A    between atoms: _24  and  _25
REMARK   13  A    between atoms: _25  and  _26
REMARK   14  A    between atoms: _29  and  _31
REMARK   15  A    between atoms: _31  and  _32
REMARK   16  A    between atoms: _31  and  _34
REMARK   17  A    between atoms: _34  and  _35
REMARK   18  A    between atoms: _38  and  _40
REMARK   19  A    between atoms: _40  and  _41
REMARK   20  A    between atoms: _40  and  _43
REMARK   21  A    between atoms: _43  and  _44
REMARK   22  A    between atoms: _47  and  _49
REMARK   23  A    between atoms: _49  and  _50
REMARK   24  A    between atoms: _49  and  _52
REMARK   25  A    between atoms: _52  and  _53
REMARK   26  A    between atoms: _55  and  _57
REMARK   27  A    between atoms: _57  and  _58
REMARK   28  A    between atoms: _57  and  _60
REMARK   29  A    between atoms: _60  and  _61
REMARK   30  A    between atoms: _66  and  _68
REMARK   31  A    between atoms: _68  and  _69
REMARK   32  A    between atoms: _68  and  _71
REMARK   33  A    between atoms: _71  and  _72
REMARK   34  A    between atoms: _74  and  _76
REMARK   35  A    between atoms: _76  and  _77
REMARK   36  A    between atoms: _76  and  _79
REMARK   37  A    between atoms: _79  and  _80
REMARK   38  A    between atoms: _82  and  _84
REMARK   39  A    between atoms: _84  and  _85
REMARK   40  A    between atoms: _84  and  _87
REMARK   41  A    between atoms: _87  and  _88
REMARK   42  A    between atoms: _91  and  _93
REMARK   43  A    between atoms: _93  and  _94
REMARK   44  A    between atoms: _97  and  _99
REMARK   45  A    between atoms: _99  and  _100
REMARK   46  A    between atoms: _99  and  _102
REMARK   47  A    between atoms: _102  and  _103
REMARK   48  A    between atoms: _106  and  _108
REMARK   49  A    between atoms: _108  and  _109
REMARK   50  A    between atoms: _108  and  _111
REMARK   51  A    between atoms: _111  and  _112
REMARK   52  A    between atoms: _115  and  _117
REMARK   53  A    between atoms: _117  and  _118
REMARK   54  A    between atoms: _117  and  _120
REMARK   55  A    between atoms: _120  and  _121
REMARK   56  A    between atoms: _121  and  _122
REMARK   57  A    between atoms: _122  and  _123
REMARK   58  A    between atoms: _123  and  _124
REMARK   59  A    between atoms: _128  and  _130
REMARK   60  A    between atoms: _130  and  _131
REMARK   61  A    between atoms: _130  and  _133
REMARK   62  A    between atoms: _133  and  _134
REMARK   63  A    between atoms: _137  and  _139
REMARK   64  A    between atoms: _139  and  _140
REMARK   65  A    between atoms: _139  and  _142
REMARK   66  A    between atoms: _142  and  _143
REMARK   67  A    between atoms: _143  and  _144
REMARK   68  A    between atoms: _147  and  _149
REMARK   69  A    between atoms: _149  and  _150
REMARK   70  A    between atoms: _149  and  _152
REMARK   71  A    between atoms: _152  and  _153
REMARK   72  A    between atoms: _156  and  _158
REMARK   73  A    between atoms: _158  and  _159
REMARK   74  A    between atoms: _158  and  _161
REMARK   75  A    between atoms: _161  and  _162
REMARK   76  A    between atoms: _165  and  _167
REMARK   77  A    between atoms: _167  and  _168
REMARK   78  A    between atoms: _167  and  _170
REMARK   79  A    between atoms: _173  and  _175
REMARK   80  A    between atoms: _175  and  _176
REMARK   81  A    between atoms: _175  and  _178
REMARK   82  A    between atoms: _178  and  _179
REMARK   83  A    between atoms: _182  and  _184
REMARK   84  A    between atoms: _184  and  _185
REMARK   85  A    between atoms: _184  and  _187
REMARK   86  A    between atoms: _187  and  _188
REMARK   87  A    between atoms: _191  and  _193
REMARK   88  A    between atoms: _193  and  _194
REMARK   89  A    between atoms: _196  and  _198
REMARK   90  A    between atoms: _198  and  _199
REMARK   91  A    between atoms: _198  and  _201
REMARK   92  A    between atoms: _201  and  _202
REMARK   93  A    between atoms: _205  and  _207
REMARK   94  A    between atoms: _207  and  _208
REMARK   95  A    between atoms: _210  and  _212
REMARK   96  A    between atoms: _212  and  _213
REMARK   97  A    between atoms: _212  and  _215
REMARK   98  A    between atoms: _215  and  _216
REMARK   99  A    between atoms: _216  and  _217
REMARK  100  A    between atoms: _219  and  _221
REMARK  101  A    between atoms: _221  and  _222
REMARK  102  A    between atoms: _221  and  _224
REMARK  103  A    between atoms: _224  and  _225
REMARK  104  A    between atoms: _228  and  _230
REMARK  105  A    between atoms: _230  and  _231
REMARK  106  A    between atoms: _234  and  _236
REMARK  107  A    between atoms: _236  and  _237
REMARK  108  A    between atoms: _236  and  _239
REMARK  109  A    between atoms: _239  and  _240
REMARK  110  A    between atoms: _243  and  _245
REMARK  111  A    between atoms: _245  and  _246
REMARK  112  A    between atoms: _245  and  _248
REMARK  113  A    between atoms: _248  and  _249
REMARK  114  A    between atoms: _252  and  _254
REMARK  115  A    between atoms: _254  and  _255
REMARK  116  A    between atoms: _254  and  _257
REMARK  117  A    between atoms: _257  and  _258
REMARK  118  A    between atoms: _263  and  _265
REMARK  119  A    between atoms: _265  and  _266
REMARK  120  A    between atoms: _265  and  _268
REMARK  121  A    between atoms: _268  and  _269
REMARK  122  A    between atoms: _274  and  _276
REMARK  123  A    between atoms: _276  and  _277
REMARK  124  A    between atoms: _276  and  _279
REMARK  125  A    between atoms: _279  and  _280
REMARK  126  A    between atoms: _283  and  _285
REMARK  127  A    between atoms: _285  and  _286
REMARK  128  A    between atoms: _288  and  _290
REMARK  129  A    between atoms: _290  and  _291
REMARK  130  A    between atoms: _290  and  _293
REMARK  131  A    between atoms: _293  and  _294
REMARK  132  A    between atoms: _297  and  _299
REMARK  133  A    between atoms: _299  and  _300
REMARK  134  A    between atoms: _299  and  _302
REMARK  135  A    between atoms: _302  and  _303
REMARK  136  A    between atoms: _303  and  _304
REMARK  137  A    between atoms: _304  and  _305
REMARK  138  A    between atoms: _305  and  _306
REMARK  139  A    between atoms: _310  and  _312
REMARK  140  A    between atoms: _312  and  _313
REMARK  141  A    between atoms: _312  and  _315
REMARK  142  A    between atoms: _315  and  _316
REMARK  143  A    between atoms: _319  and  _321
REMARK  144  A    between atoms: _321  and  _322
REMARK  145  A    between atoms: _324  and  _326
REMARK  146  A    between atoms: _326  and  _327
REMARK  147  A    between atoms: _326  and  _329
REMARK  148  A    between atoms: _329  and  _330
REMARK  149  A    between atoms: _336  and  _338
REMARK  150  A    between atoms: _338  and  _339
REMARK  151  A    between atoms: _341  and  _343
REMARK  152  A    between atoms: _343  and  _344
REMARK  153  A    between atoms: _343  and  _346
REMARK  154  A    between atoms: _349  and  _351
REMARK  155  A    between atoms: _351  and  _352
REMARK  156  A    between atoms: _354  and  _356
REMARK  157  A    between atoms: _356  and  _357
REMARK  158  A    between atoms: _356  and  _359
REMARK  159  A    between atoms: _359  and  _360
REMARK  160  A    between atoms: _366  and  _368
REMARK  161  A    between atoms: _368  and  _369
REMARK  162  A    between atoms: _368  and  _371
REMARK  163  A    between atoms: _371  and  _372
REMARK  164  A    between atoms: _377  and  _378
REMARK  165  A    between atoms: _380  and  _382
REMARK  166  A    between atoms: _382  and  _383
REMARK  167  A    between atoms: _382  and  _385
REMARK  168  A    between atoms: _385  and  _386
REMARK  169  A    between atoms: _388  and  _390
REMARK  170  A    between atoms: _390  and  _391
REMARK  171  A    between atoms: _394  and  _396
REMARK  172  A    between atoms: _396  and  _397
REMARK  173  A    between atoms: _396  and  _399
REMARK  174  A    between atoms: _402  and  _404
REMARK  175  A    between atoms: _404  and  _405
REMARK  176  A    between atoms: _404  and  _407
REMARK  177  A    between atoms: _407  and  _408
REMARK  178  A    between atoms: _411  and  _413
REMARK  179  A    between atoms: _413  and  _414
REMARK  180  A    between atoms: _413  and  _416
REMARK  181  A    between atoms: _419  and  _421
REMARK  182  A    between atoms: _421  and  _422
REMARK  183  A    between atoms: _421  and  _424
REMARK  184  A    between atoms: _424  and  _425
REMARK  185  A    between atoms: _428  and  _430
REMARK  186  A    between atoms: _430  and  _431
REMARK  187  A    between atoms: _430  and  _433
REMARK  188  A    between atoms: _433  and  _434
REMARK  189  A    between atoms: _437  and  _439
REMARK  190  A    between atoms: _439  and  _440
REMARK  191  A    between atoms: _439  and  _442
REMARK  192  A    between atoms: _442  and  _443
REMARK  193  A    between atoms: _443  and  _444
REMARK  194  A    between atoms: _444  and  _445
REMARK  195  A    between atoms: _445  and  _446
REMARK  196  A    between atoms: _450  and  _452
REMARK  197  A    between atoms: _452  and  _453
REMARK  198  A    between atoms: _452  and  _455
REMARK  199  A    between atoms: _455  and  _456
REMARK  200  A    between atoms: _461  and  _463
REMARK  201  A    between atoms: _463  and  _464
REMARK  202  A    between atoms: _463  and  _466
REMARK  203  A    between atoms: _466  and  _467
REMARK  204  A    between atoms: _477  and  _479
REMARK  205  A    between atoms: _479  and  _480
REMARK  206  A    between atoms: _482  and  _484
REMARK  207  A    between atoms: _484  and  _485
REMARK  208  A    between atoms: _484  and  _487
REMARK  209  A    between atoms: _487  and  _488
REMARK  210  A    between atoms: _491  and  _493
REMARK  211  A    between atoms: _493  and  _494
REMARK  212  A    between atoms: _493  and  _496
REMARK  213  A    between atoms: _496  and  _497
REMARK  214  A    between atoms: _497  and  _498
REMARK  215  A    between atoms: _498  and  _499
REMARK  216  A    between atoms: _499  and  _500
REMARK  217  A    between atoms: _504  and  _506
REMARK  218  A    between atoms: _506  and  _507
REMARK  219  A    between atoms: _506  and  _509
REMARK                            x       y       z     vdW  Elec       q    Type
REMARK                         _______ _______ _______ _____ _____    ______ ____
ROOT
ATOM      1  O   HOH     1      33.464 -43.289  60.521  0.00  0.00    +0.000 OA
ENDROOT
TORSDOF 0
REMARK  Name = ../refined-set-2016/1yet/1yet_pocket.pdb
REMARK  219 active torsions:
REMARK  status: ('A' for Active; 'I' for Inactive)
REMARK    1  A    between atoms: _1  and  _3
REMARK    2  A    between atoms: _3  and  _4
REMARK    3  A    between atoms: _3  and  _6
REMARK    4  A    between atoms: _6  and  _7
REMARK    5  A    between atoms: _10  and  _12
REMARK    6  A    between atoms: _12  and  _13
REMARK    7  A    between atoms: _12  and  _15
REMARK    8  A    between atoms: _15  and  _16
REMARK    9  A    between atoms: _19  and  _21
REMARK   10  A    between atoms: _21  and  _22
REMARK   11  A    between atoms: _21  and  _24
REMARK   12  A    between atoms: _24  and  _25
REMARK   13  A    between atoms: _25  and  _26
REMARK   14  A    between atoms: _29  and  _31
REMARK   15  A    between atoms: _31  and  _32
REMARK   16  A    between atoms: _31  and  _34
REMARK   17  A    between atoms: _34  and  _35
REMARK   18  A    between atoms: _38  and  _40
REMARK   19  A    between atoms: _40  and  _41
REMARK   20  A    between atoms: _40  and  _43
REMARK   21  A    between atoms: _43  and  _44
REMARK   22  A    between atoms: _47  and  _49
REMARK   23  A    between atoms: _49  and  _50
REMARK   24  A    between atoms: _49  and  _52
REMARK   25  A    between atoms: _52  and  _53
REMARK   26  A    between atoms: _55  and  _57
REMARK   27  A    between atoms: _57  and  _58
REMARK   28  A    between atoms: _57  and  _60
REMARK   29  A    between atoms: _60  and  _61
REMARK   30  A    between atoms: _66  and  _68
REMARK   31  A    between atoms: _68  and  _69
REMARK   32  A    between atoms: _68  and  _71
REMARK   33  A    between atoms: _71  and  _72
REMARK   34  A    between atoms: _74  and  _76
REMARK   35  A    between atoms: _76  and  _77
REMARK   36  A    between atoms: _76  and  _79
REMARK   37  A    between atoms: _79  and  _80
REMARK   38  A    between atoms: _82  and  _84
REMARK   39  A    between atoms: _84  and  _85
REMARK   40  A    between atoms: _84  and  _87
REMARK   41  A    between atoms: _87  and  _88
REMARK   42  A    between atoms: _91  and  _93
REMARK   43  A    between atoms: _93  and  _94
REMARK   44  A    between atoms: _97  and  _99
REMARK   45  A    between atoms: _99  and  _100
REMARK   46  A    between atoms: _99  and  _102
REMARK   47  A    between atoms: _102  and  _103
REMARK   48  A    between atoms: _106  and  _108
REMARK   49  A    between atoms: _108  and  _109
REMARK   50  A    between atoms: _108  and  _111
REMARK   51  A    between atoms: _111  and  _112
REMARK   52  A    between atoms: _115  and  _117
REMARK   53  A    between atoms: _117  and  _118
REMARK   54  A    between atoms: _117  and  _120
REMARK   55  A    between atoms: _120  and  _121
REMARK   56  A    between atoms: _121  and  _122
REMARK   57  A    between atoms: _122  and  _123
REMARK   58  A    between atoms: _123  and  _124
REMARK   59  A    between atoms: _128  and  _130
REMARK   60  A    between atoms: _130  and  _131
REMARK   61  A    between atoms: _130  and  _133
REMARK   62  A    between atoms: _133  and  _134
REMARK   63  A    between atoms: _137  and  _139
REMARK   64  A    between atoms: _139  and  _140
REMARK   65  A    between atoms: _139  and  _142
REMARK   66  A    between atoms: _142  and  _143
REMARK   67  A    between atoms: _143  and  _144
REMARK   68  A    between atoms: _147  and  _149
REMARK   69  A    between atoms: _149  and  _150
REMARK   70  A    between atoms: _149  and  _152
REMARK   71  A    between atoms: _152  and  _153
REMARK   72  A    between atoms: _156  and  _158
REMARK   73  A    between atoms: _158  and  _159
REMARK   74  A    between atoms: _158  and  _161
REMARK   75  A    between atoms: _161  and  _162
REMARK   76  A    between atoms: _165  and  _167
REMARK   77  A    between atoms: _167  and  _168
REMARK   78  A    between atoms: _167  and  _170
REMARK   79  A    between atoms: _173  and  _175
REMARK   80  A    between atoms: _175  and  _176
REMARK   81  A    between atoms: _175  and  _178
REMARK   82  A    between atoms: _178  and  _179
REMARK   83  A    between atoms: _182  and  _184
REMARK   84  A    between atoms: _184  and  _185
REMARK   85  A    between atoms: _184  and  _187
REMARK   86  A    between atoms: _187  and  _188
REMARK   87  A    between atoms: _191  and  _193
REMARK   88  A    between atoms: _193  and  _194
REMARK   89  A    between atoms: _196  and  _198
REMARK   90  A    between atoms: _198  and  _199
REMARK   91  A    between atoms: _198  and  _201
REMARK   92  A    between atoms: _201  and  _202
REMARK   93  A    between atoms: _205  and  _207
REMARK   94  A    between atoms: _207  and  _208
REMARK   95  A    between atoms: _210  and  _212
REMARK   96  A    between atoms: _212  and  _213
REMARK   97  A    between atoms: _212  and  _215
REMARK   98  A    between atoms: _215  and  _216
REMARK   99  A    between atoms: _216  and  _217
REMARK  100  A    between atoms: _219  and  _221
REMARK  101  A    between atoms: _221  and  _222
REMARK  102  A    between atoms: _221  and  _224
REMARK  103  A    between atoms: _224  and  _225
REMARK  104  A    between atoms: _228  and  _230
REMARK  105  A    between atoms: _230  and  _231
REMARK  106  A    between atoms: _234  and  _236
REMARK  107  A    between atoms: _236  and  _237
REMARK  108  A    between atoms: _236  and  _239
REMARK  109  A    between atoms: _239  and  _240
REMARK  110  A    between atoms: _243  and  _245
REMARK  111  A    between atoms: _245  and  _246
REMARK  112  A    between atoms: _245  and  _248
REMARK  113  A    between atoms: _248  and  _249
REMARK  114  A    between atoms: _252  and  _254
REMARK  115  A    between atoms: _254  and  _255
REMARK  116  A    between atoms: _254  and  _257
REMARK  117  A    between atoms: _257  and  _258
REMARK  118  A    between atoms: _263  and  _265
REMARK  119  A    between atoms: _265  and  _266
REMARK  120  A    between atoms: _265  and  _268
REMARK  121  A    between atoms: _268  and  _269
REMARK  122  A    between atoms: _274  and  _276
REMARK  123  A    between atoms: _276  and  _277
REMARK  124  A    between atoms: _276  and  _279
REMARK  125  A    between atoms: _279  and  _280
REMARK  126  A    between atoms: _283  and  _285
REMARK  127  A    between atoms: _285  and  _286
REMARK  128  A    between atoms: _288  and  _290
REMARK  129  A    between atoms: _290  and  _291
REMARK  130  A    between atoms: _290  and  _293
REMARK  131  A    between atoms: _293  and  _294
REMARK  132  A    between atoms: _297  and  _299
REMARK  133  A    between atoms: _299  and  _300
REMARK  134  A    between atoms: _299  and  _302
REMARK  135  A    between atoms: _302  and  _303
REMARK  136  A    between atoms: _303  and  _304
REMARK  137  A    between atoms: _304  and  _305
REMARK  138  A    between atoms: _305  and  _306
REMARK  139  A    between atoms: _310  and  _312
REMARK  140  A    between atoms: _312  and  _313
REMARK  141  A    between atoms: _312  and  _315
REMARK  142  A    between atoms: _315  and  _316
REMARK  143  A    between atoms: _319  and  _321
REMARK  144  A    between atoms: _321  and  _322
REMARK  145  A    between atoms: _324  and  _326
REMARK  146  A    between atoms: _326  and  _327
REMARK  147  A    between atoms: _326  and  _329
REMARK  148  A    between atoms: _329  and  _330
REMARK  149  A    between atoms: _336  and  _338
REMARK  150  A    between atoms: _338  and  _339
REMARK  151  A    between atoms: _341  and  _343
REMARK  152  A    between atoms: _343  and  _344
REMARK  153  A    between atoms: _343  and  _346
REMARK  154  A    between atoms: _349  and  _351
REMARK  155  A    between atoms: _351  and  _352
REMARK  156  A    between atoms: _354  and  _356
REMARK  157  A    between atoms: _356  and  _357
REMARK  158  A    between atoms: _356  and  _359
REMARK  159  A    between atoms: _359  and  _360
REMARK  160  A    between atoms: _366  and  _368
REMARK  161  A    between atoms: _368  and  _369
REMARK  162  A    between atoms: _368  and  _371
REMARK  163  A    between atoms: _371  and  _372
REMARK  164  A    between atoms: _377  and  _378
REMARK  165  A    between atoms: _380  and  _382
REMARK  166  A    between atoms: _382  and  _383
REMARK  167  A    between atoms: _382  and  _385
REMARK  168  A    between atoms: _385  and  _386
REMARK  169  A    between atoms: _388  and  _390
REMARK  170  A    between atoms: _390  and  _391
REMARK  171  A    between atoms: _394  and  _396
REMARK  172  A    between atoms: _396  and  _397
REMARK  173  A    between atoms: _396  and  _399
REMARK  174  A    between atoms: _402  and  _404
REMARK  175  A    between atoms: _404  and  _405
REMARK  176  A    between atoms: _404  and  _407
REMARK  177  A    between atoms: _407  and  _408
REMARK  178  A    between atoms: _411  and  _413
REMARK  179  A    between atoms: _413  and  _414
REMARK  180  A    between atoms: _413  and  _416
REMARK  181  A    between atoms: _419  and  _421
REMARK  182  A    between atoms: _421  and  _422
REMARK  183  A    between atoms: _421  and  _424
REMARK  184  A    between atoms: _424  and  _425
REMARK  185  A    between atoms: _428  and  _430
REMARK  186  A    between atoms: _430  and  _431
REMARK  187  A    between atoms: _430  and  _433
REMARK  188  A    between atoms: _433  and  _434
REMARK  189  A    between atoms: _437  and  _439
REMARK  190  A    between atoms: _439  and  _440
REMARK  191  A    between atoms: _439  and  _442
REMARK  192  A    between atoms: _442  and  _443
REMARK  193  A    between atoms: _443  and  _444
REMARK  194  A    between atoms: _444  and  _445
REMARK  195  A    between atoms: _445  and  _446
REMARK  196  A    between atoms: _450  and  _452
REMARK  197  A    between atoms: _452  and  _453
REMARK  198  A    between atoms: _452  and  _455
REMARK  199  A    between atoms: _455  and  _456
REMARK  200  A    between atoms: _461  and  _463
REMARK  201  A    between atoms: _463  and  _464
REMARK  202  A    between atoms: _463  and  _466
REMARK  203  A    between atoms: _466  and  _467
REMARK  204  A    between atoms: _477  and  _479
REMARK  205  A    between atoms: _479  and  _480
REMARK  206  A    between atoms: _482  and  _484
REMARK  207  A    between atoms: _484  and  _485
REMARK  208  A    between atoms: _484  and  _487
REMARK  209  A    between atoms: _487  and  _488
REMARK  210  A    between atoms: _491  and  _493
REMARK  211  A    between atoms: _493  and  _494
REMARK  212  A    between atoms: _493  and  _496
REMARK  213  A    between atoms: _496  and  _497
REMARK  214  A    between atoms: _497  and  _498
REMARK  215  A    between atoms: _498  and  _499
REMARK  216  A    between atoms: _499  and  _500
REMARK  217  A    between atoms: _504  and  _506
REMARK  218  A    between atoms: _506  and  _507
REMARK  219  A    between atoms: _506  and  _509
REMARK                            x       y       z     vdW  Elec       q    Type
REMARK                         _______ _______ _______ _____ _____    ______ ____
ROOT
ATOM      1  O   HOH     1      37.749 -48.735  71.198  0.00  0.00    +0.000 OA
ENDROOT
TORSDOF 0
REMARK  Name = ../refined-set-2016/1yet/1yet_pocket.pdb
REMARK  219 active torsions:
REMARK  status: ('A' for Active; 'I' for Inactive)
REMARK    1  A    between atoms: _1  and  _3
REMARK    2  A    between atoms: _3  and  _4
REMARK    3  A    between atoms: _3  and  _6
REMARK    4  A    between atoms: _6  and  _7
REMARK    5  A    between atoms: _10  and  _12
REMARK    6  A    between atoms: _12  and  _13
REMARK    7  A    between atoms: _12  and  _15
REMARK    8  A    between atoms: _15  and  _16
REMARK    9  A    between atoms: _19  and  _21
REMARK   10  A    between atoms: _21  and  _22
REMARK   11  A    between atoms: _21  and  _24
REMARK   12  A    between atoms: _24  and  _25
REMARK   13  A    between atoms: _25  and  _26
REMARK   14  A    between atoms: _29  and  _31
REMARK   15  A    between atoms: _31  and  _32
REMARK   16  A    between atoms: _31  and  _34
REMARK   17  A    between atoms: _34  and  _35
REMARK   18  A    between atoms: _38  and  _40
REMARK   19  A    between atoms: _40  and  _41
REMARK   20  A    between atoms: _40  and  _43
REMARK   21  A    between atoms: _43  and  _44
REMARK   22  A    between atoms: _47  and  _49
REMARK   23  A    between atoms: _49  and  _50
REMARK   24  A    between atoms: _49  and  _52
REMARK   25  A    between atoms: _52  and  _53
REMARK   26  A    between atoms: _55  and  _57
REMARK   27  A    between atoms: _57  and  _58
REMARK   28  A    between atoms: _57  and  _60
REMARK   29  A    between atoms: _60  and  _61
REMARK   30  A    between atoms: _66  and  _68
REMARK   31  A    between atoms: _68  and  _69
REMARK   32  A    between atoms: _68  and  _71
REMARK   33  A    between atoms: _71  and  _72
REMARK   34  A    between atoms: _74  and  _76
REMARK   35  A    between atoms: _76  and  _77
REMARK   36  A    between atoms: _76  and  _79
REMARK   37  A    between atoms: _79  and  _80
REMARK   38  A    between atoms: _82  and  _84
REMARK   39  A    between atoms: _84  and  _85
REMARK   40  A    between atoms: _84  and  _87
REMARK   41  A    between atoms: _87  and  _88
REMARK   42  A    between atoms: _91  and  _93
REMARK   43  A    between atoms: _93  and  _94
REMARK   44  A    between atoms: _97  and  _99
REMARK   45  A    between atoms: _99  and  _100
REMARK   46  A    between atoms: _99  and  _102
REMARK   47  A    between atoms: _102  and  _103
REMARK   48  A    between atoms: _106  and  _108
REMARK   49  A    between atoms: _108  and  _109
REMARK   50  A    between atoms: _108  and  _111
REMARK   51  A    between atoms: _111  and  _112
REMARK   52  A    between atoms: _115  and  _117
REMARK   53  A    between atoms: _117  and  _118
REMARK   54  A    between atoms: _117  and  _120
REMARK   55  A    between atoms: _120  and  _121
REMARK   56  A    between atoms: _121  and  _122
REMARK   57  A    between atoms: _122  and  _123
REMARK   58  A    between atoms: _123  and  _124
REMARK   59  A    between atoms: _128  and  _130
REMARK   60  A    between atoms: _130  and  _131
REMARK   61  A    between atoms: _130  and  _133
REMARK   62  A    between atoms: _133  and  _134
REMARK   63  A    between atoms: _137  and  _139
REMARK   64  A    between atoms: _139  and  _140
REMARK   65  A    between atoms: _139  and  _142
REMARK   66  A    between atoms: _142  and  _143
REMARK   67  A    between atoms: _143  and  _144
REMARK   68  A    between atoms: _147  and  _149
REMARK   69  A    between atoms: _149  and  _150
REMARK   70  A    between atoms: _149  and  _152
REMARK   71  A    between atoms: _152  and  _153
REMARK   72  A    between atoms: _156  and  _158
REMARK   73  A    between atoms: _158  and  _159
REMARK   74  A    between atoms: _158  and  _161
REMARK   75  A    between atoms: _161  and  _162
REMARK   76  A    between atoms: _165  and  _167
REMARK   77  A    between atoms: _167  and  _168
REMARK   78  A    between atoms: _167  and  _170
REMARK   79  A    between atoms: _173  and  _175
REMARK   80  A    between atoms: _175  and  _176
REMARK   81  A    between atoms: _175  and  _178
REMARK   82  A    between atoms: _178  and  _179
REMARK   83  A    between atoms: _182  and  _184
REMARK   84  A    between atoms: _184  and  _185
REMARK   85  A    between atoms: _184  and  _187
REMARK   86  A    between atoms: _187  and  _188
REMARK   87  A    between atoms: _191  and  _193
REMARK   88  A    between atoms: _193  and  _194
REMARK   89  A    between atoms: _196  and  _198
REMARK   90  A    between atoms: _198  and  _199
REMARK   91  A    between atoms: _198  and  _201
REMARK   92  A    between atoms: _201  and  _202
REMARK   93  A    between atoms: _205  and  _207
REMARK   94  A    between atoms: _207  and  _208
REMARK   95  A    between atoms: _210  and  _212
REMARK   96  A    between atoms: _212  and  _213
REMARK   97  A    between atoms: _212  and  _215
REMARK   98  A    between atoms: _215  and  _216
REMARK   99  A    between atoms: _216  and  _217
REMARK  100  A    between atoms: _219  and  _221
REMARK  101  A    between atoms: _221  and  _222
REMARK  102  A    between atoms: _221  and  _224
REMARK  103  A    between atoms: _224  and  _225
REMARK  104  A    between atoms: _228  and  _230
REMARK  105  A    between atoms: _230  and  _231
REMARK  106  A    between atoms: _234  and  _236
REMARK  107  A    between atoms: _236  and  _237
REMARK  108  A    between atoms: _236  and  _239
REMARK  109  A    between atoms: _239  and  _240
REMARK  110  A    between atoms: _243  and  _245
REMARK  111  A    between atoms: _245  and  _246
REMARK  112  A    between atoms: _245  and  _248
REMARK  113  A    between atoms: _248  and  _249
REMARK  114  A    between atoms: _252  and  _254
REMARK  115  A    between atoms: _254  and  _255
REMARK  116  A    between atoms: _254  and  _257
REMARK  117  A    between atoms: _257  and  _258
REMARK  118  A    between atoms: _263  and  _265
REMARK  119  A    between atoms: _265  and  _266
REMARK  120  A    between atoms: _265  and  _268
REMARK  121  A    between atoms: _268  and  _269
REMARK  122  A    between atoms: _274  and  _276
REMARK  123  A    between atoms: _276  and  _277
REMARK  124  A    between atoms: _276  and  _279
REMARK  125  A    between atoms: _279  and  _280
REMARK  126  A    between atoms: _283  and  _285
REMARK  127  A    between atoms: _285  and  _286
REMARK  128  A    between atoms: _288  and  _290
REMARK  129  A    between atoms: _290  and  _291
REMARK  130  A    between atoms: _290  and  _293
REMARK  131  A    between atoms: _293  and  _294
REMARK  132  A    between atoms: _297  and  _299
REMARK  133  A    between atoms: _299  and  _300
REMARK  134  A    between atoms: _299  and  _302
REMARK  135  A    between atoms: _302  and  _303
REMARK  136  A    between atoms: _303  and  _304
REMARK  137  A    between atoms: _304  and  _305
REMARK  138  A    between atoms: _305  and  _306
REMARK  139  A    between atoms: _310  and  _312
REMARK  140  A    between atoms: _312  and  _313
REMARK  141  A    between atoms: _312  and  _315
REMARK  142  A    between atoms: _315  and  _316
REMARK  143  A    between atoms: _319  and  _321
REMARK  144  A    between atoms: _321  and  _322
REMARK  145  A    between atoms: _324  and  _326
REMARK  146  A    between atoms: _326  and  _327
REMARK  147  A    between atoms: _326  and  _329
REMARK  148  A    between atoms: _329  and  _330
REMARK  149  A    between atoms: _336  and  _338
REMARK  150  A    between atoms: _338  and  _339
REMARK  151  A    between atoms: _341  and  _343
REMARK  152  A    between atoms: _343  and  _344
REMARK  153  A    between atoms: _343  and  _346
REMARK  154  A    between atoms: _349  and  _351
REMARK  155  A    between atoms: _351  and  _352
REMARK  156  A    between atoms: _354  and  _356
REMARK  157  A    between atoms: _356  and  _357
REMARK  158  A    between atoms: _356  and  _359
REMARK  159  A    between atoms: _359  and  _360
REMARK  160  A    between atoms: _366  and  _368
REMARK  161  A    between atoms: _368  and  _369
REMARK  162  A    between atoms: _368  and  _371
REMARK  163  A    between atoms: _371  and  _372
REMARK  164  A    between atoms: _377  and  _378
REMARK  165  A    between atoms: _380  and  _382
REMARK  166  A    between atoms: _382  and  _383
REMARK  167  A    between atoms: _382  and  _385
REMARK  168  A    between atoms: _385  and  _386
REMARK  169  A    between atoms: _388  and  _390
REMARK  170  A    between atoms: _390  and  _391
REMARK  171  A    between atoms: _394  and  _396
REMARK  172  A    between atoms: _396  and  _397
REMARK  173  A    between atoms: _396  and  _399
REMARK  174  A    between atoms: _402  and  _404
REMARK  175  A    between atoms: _404  and  _405
REMARK  176  A    between atoms: _404  and  _407
REMARK  177  A    between atoms: _407  and  _408
REMARK  178  A    between atoms: _411  and  _413
REMARK  179  A    between atoms: _413  and  _414
REMARK  180  A    between atoms: _413  and  _416
REMARK  181  A    between atoms: _419  and  _421
REMARK  182  A    between atoms: _421  and  _422
REMARK  183  A    between atoms: _421  and  _424
REMARK  184  A    between atoms: _424  and  _425
REMARK  185  A    between atoms: _428  and  _430
REMARK  186  A    between atoms: _430  and  _431
REMARK  187  A    between atoms: _430  and  _433
REMARK  188  A    between atoms: _433  and  _434
REMARK  189  A    between atoms: _437  and  _439
REMARK  190  A    between atoms: _439  and  _440
REMARK  191  A    between atoms: _439  and  _442
REMARK  192  A    between atoms: _442  and  _443
REMARK  193  A    between atoms: _443  and  _444
REMARK  194  A    between atoms: _444  and  _445
REMARK  195  A    between atoms: _445  and  _446
REMARK  196  A    between atoms: _450  and  _452
REMARK  197  A    between atoms: _452  and  _453
REMARK  198  A    between atoms: _452  and  _455
REMARK  199  A    between atoms: _455  and  _456
REMARK  200  A    between atoms: _461  and  _463
REMARK  201  A    between atoms: _463  and  _464
REMARK  202  A    between atoms: _463  and  _466
REMARK  203  A    between atoms: _466  and  _467
REMARK  204  A    between atoms: _477  and  _479
REMARK  205  A    between atoms: _479  and  _480
REMARK  206  A    between atoms: _482  and  _484
REMARK  207  A    between atoms: _484  and  _485
REMARK  208  A    between atoms: _484  and  _487
REMARK  209  A    between atoms: _487  and  _488
REMARK  210  A    between atoms: _491  and  _493
REMARK  211  A    between atoms: _493  and  _494
REMARK  212  A    between atoms: _493  and  _496
REMARK  213  A    between atoms: _496  and  _497
REMARK  214  A    between atoms: _497  and  _498
REMARK  215  A    between atoms: _498  and  _499
REMARK  216  A    between atoms: _499  and  _500
REMARK  217  A    between atoms: _504  and  _506
REMARK  218  A    between atoms: _506  and  _507
REMARK  219  A    between atoms: _506  and  _509
REMARK                            x       y       z     vdW  Elec       q    Type
REMARK                         _______ _______ _______ _____ _____    ______ ____
ROOT
ATOM      1  O   HOH     1      41.545 -37.600  71.248  0.00  0.00    +0.000 OA
ENDROOT
TORSDOF 0
REMARK  Name = ../refined-set-2016/1yet/1yet_pocket.pdb
REMARK  219 active torsions:
REMARK  status: ('A' for Active; 'I' for Inactive)
REMARK    1  A    between atoms: _1  and  _3
REMARK    2  A    between atoms: _3  and  _4
REMARK    3  A    between atoms: _3  and  _6
REMARK    4  A    between atoms: _6  and  _7
REMARK    5  A    between atoms: _10  and  _12
REMARK    6  A    between atoms: _12  and  _13
REMARK    7  A    between atoms: _12  and  _15
REMARK    8  A    between atoms: _15  and  _16
REMARK    9  A    between atoms: _19  and  _21
REMARK   10  A    between atoms: _21  and  _22
REMARK   11  A    between atoms: _21  and  _24
REMARK   12  A    between atoms: _24  and  _25
REMARK   13  A    between atoms: _25  and  _26
REMARK   14  A    between atoms: _29  and  _31
REMARK   15  A    between atoms: _31  and  _32
REMARK   16  A    between atoms: _31  and  _34
REMARK   17  A    between atoms: _34  and  _35
REMARK   18  A    between atoms: _38  and  _40
REMARK   19  A    between atoms: _40  and  _41
REMARK   20  A    between atoms: _40  and  _43
REMARK   21  A    between atoms: _43  and  _44
REMARK   22  A    between atoms: _47  and  _49
REMARK   23  A    between atoms: _49  and  _50
REMARK   24  A    between atoms: _49  and  _52
REMARK   25  A    between atoms: _52  and  _53
REMARK   26  A    between atoms: _55  and  _57
REMARK   27  A    between atoms: _57  and  _58
REMARK   28  A    between atoms: _57  and  _60
REMARK   29  A    between atoms: _60  and  _61
REMARK   30  A    between atoms: _66  and  _68
REMARK   31  A    between atoms: _68  and  _69
REMARK   32  A    between atoms: _68  and  _71
REMARK   33  A    between atoms: _71  and  _72
REMARK   34  A    between atoms: _74  and  _76
REMARK   35  A    between atoms: _76  and  _77
REMARK   36  A    between atoms: _76  and  _79
REMARK   37  A    between atoms: _79  and  _80
REMARK   38  A    between atoms: _82  and  _84
REMARK   39  A    between atoms: _84  and  _85
REMARK   40  A    between atoms: _84  and  _87
REMARK   41  A    between atoms: _87  and  _88
REMARK   42  A    between atoms: _91  and  _93
REMARK   43  A    between atoms: _93  and  _94
REMARK   44  A    between atoms: _97  and  _99
REMARK   45  A    between atoms: _99  and  _100
REMARK   46  A    between atoms: _99  and  _102
REMARK   47  A    between atoms: _102  and  _103
REMARK   48  A    between atoms: _106  and  _108
REMARK   49  A    between atoms: _108  and  _109
REMARK   50  A    between atoms: _108  and  _111
REMARK   51  A    between atoms: _111  and  _112
REMARK   52  A    between atoms: _115  and  _117
REMARK   53  A    between atoms: _117  and  _118
REMARK   54  A    between atoms: _117  and  _120
REMARK   55  A    between atoms: _120  and  _121
REMARK   56  A    between atoms: _121  and  _122
REMARK   57  A    between atoms: _122  and  _123
REMARK   58  A    between atoms: _123  and  _124
REMARK   59  A    between atoms: _128  and  _130
REMARK   60  A    between atoms: _130  and  _131
REMARK   61  A    between atoms: _130  and  _133
REMARK   62  A    between atoms: _133  and  _134
REMARK   63  A    between atoms: _137  and  _139
REMARK   64  A    between atoms: _139  and  _140
REMARK   65  A    between atoms: _139  and  _142
REMARK   66  A    between atoms: _142  and  _143
REMARK   67  A    between atoms: _143  and  _144
REMARK   68  A    between atoms: _147  and  _149
REMARK   69  A    between atoms: _149  and  _150
REMARK   70  A    between atoms: _149  and  _152
REMARK   71  A    between atoms: _152  and  _153
REMARK   72  A    between atoms: _156  and  _158
REMARK   73  A    between atoms: _158  and  _159
REMARK   74  A    between atoms: _158  and  _161
REMARK   75  A    between atoms: _161  and  _162
REMARK   76  A    between atoms: _165  and  _167
REMARK   77  A    between atoms: _167  and  _168
REMARK   78  A    between atoms: _167  and  _170
REMARK   79  A    between atoms: _173  and  _175
REMARK   80  A    between atoms: _175  and  _176
REMARK   81  A    between atoms: _175  and  _178
REMARK   82  A    between atoms: _178  and  _179
REMARK   83  A    between atoms: _182  and  _184
REMARK   84  A    between atoms: _184  and  _185
REMARK   85  A    between atoms: _184  and  _187
REMARK   86  A    between atoms: _187  and  _188
REMARK   87  A    between atoms: _191  and  _193
REMARK   88  A    between atoms: _193  and  _194
REMARK   89  A    between atoms: _196  and  _198
REMARK   90  A    between atoms: _198  and  _199
REMARK   91  A    between atoms: _198  and  _201
REMARK   92  A    between atoms: _201  and  _202
REMARK   93  A    between atoms: _205  and  _207
REMARK   94  A    between atoms: _207  and  _208
REMARK   95  A    between atoms: _210  and  _212
REMARK   96  A    between atoms: _212  and  _213
REMARK   97  A    between atoms: _212  and  _215
REMARK   98  A    between atoms: _215  and  _216
REMARK   99  A    between atoms: _216  and  _217
REMARK  100  A    between atoms: _219  and  _221
REMARK  101  A    between atoms: _221  and  _222
REMARK  102  A    between atoms: _221  and  _224
REMARK  103  A    between atoms: _224  and  _225
REMARK  104  A    between atoms: _228  and  _230
REMARK  105  A    between atoms: _230  and  _231
REMARK  106  A    between atoms: _234  and  _236
REMARK  107  A    between atoms: _236  and  _237
REMARK  108  A    between atoms: _236  and  _239
REMARK  109  A    between atoms: _239  and  _240
REMARK  110  A    between atoms: _243  and  _245
REMARK  111  A    between atoms: _245  and  _246
REMARK  112  A    between atoms: _245  and  _248
REMARK  113  A    between atoms: _248  and  _249
REMARK  114  A    between atoms: _252  and  _254
REMARK  115  A    between atoms: _254  and  _255
REMARK  116  A    between atoms: _254  and  _257
REMARK  117  A    between atoms: _257  and  _258
REMARK  118  A    between atoms: _263  and  _265
REMARK  119  A    between atoms: _265  and  _266
REMARK  120  A    between atoms: _265  and  _268
REMARK  121  A    between atoms: _268  and  _269
REMARK  122  A    between atoms: _274  and  _276
REMARK  123  A    between atoms: _276  and  _277
REMARK  124  A    between atoms: _276  and  _279
REMARK  125  A    between atoms: _279  and  _280
REMARK  126  A    between atoms: _283  and  _285
REMARK  127  A    between atoms: _285  and  _286
REMARK  128  A    between atoms: _288  and  _290
REMARK  129  A    between atoms: _290  and  _291
REMARK  130  A    between atoms: _290  and  _293
REMARK  131  A    between atoms: _293  and  _294
REMARK  132  A    between atoms: _297  and  _299
REMARK  133  A    between atoms: _299  and  _300
REMARK  134  A    between atoms: _299  and  _302
REMARK  135  A    between atoms: _302  and  _303
REMARK  136  A    between atoms: _303  and  _304
REMARK  137  A    between atoms: _304  and  _305
REMARK  138  A    between atoms: _305  and  _306
REMARK  139  A    between atoms: _310  and  _312
REMARK  140  A    between atoms: _312  and  _313
REMARK  141  A    between atoms: _312  and  _315
REMARK  142  A    between atoms: _315  and  _316
REMARK  143  A    between atoms: _319  and  _321
REMARK  144  A    between atoms: _321  and  _322
REMARK  145  A    between atoms: _324  and  _326
REMARK  146  A    between atoms: _326  and  _327
REMARK  147  A    between atoms: _326  and  _329
REMARK  148  A    between atoms: _329  and  _330
REMARK  149  A    between atoms: _336  and  _338
REMARK  150  A    between atoms: _338  and  _339
REMARK  151  A    between atoms: _341  and  _343
REMARK  152  A    between atoms: _343  and  _344
REMARK  153  A    between atoms: _343  and  _346
REMARK  154  A    between atoms: _349  and  _351
REMARK  155  A    between atoms: _351  and  _352
REMARK  156  A    between atoms: _354  and  _356
REMARK  157  A    between atoms: _356  and  _357
REMARK  158  A    between atoms: _356  and  _359
REMARK  159  A    between atoms: _359  and  _360
REMARK  160  A    between atoms: _366  and  _368
REMARK  161  A    between atoms: _368  and  _369
REMARK  162  A    between atoms: _368  and  _371
REMARK  163  A    between atoms: _371  and  _372
REMARK  164  A    between atoms: _377  and  _378
REMARK  165  A    between atoms: _380  and  _382
REMARK  166  A    between atoms: _382  and  _383
REMARK  167  A    between atoms: _382  and  _385
REMARK  168  A    between atoms: _385  and  _386
REMARK  169  A    between atoms: _388  and  _390
REMARK  170  A    between atoms: _390  and  _391
REMARK  171  A    between atoms: _394  and  _396
REMARK  172  A    between atoms: _396  and  _397
REMARK  173  A    between atoms: _396  and  _399
REMARK  174  A    between atoms: _402  and  _404
REMARK  175  A    between atoms: _404  and  _405
REMARK  176  A    between atoms: _404  and  _407
REMARK  177  A    between atoms: _407  and  _408
REMARK  178  A    between atoms: _411  and  _413
REMARK  179  A    between atoms: _413  and  _414
REMARK  180  A    between atoms: _413  and  _416
REMARK  181  A    between atoms: _419  and  _421
REMARK  182  A    between atoms: _421  and  _422
REMARK  183  A    between atoms: _421  and  _424
REMARK  184  A    between atoms: _424  and  _425
REMARK  185  A    between atoms: _428  and  _430
REMARK  186  A    between atoms: _430  and  _431
REMARK  187  A    between atoms: _430  and  _433
REMARK  188  A    between atoms: _433  and  _434
REMARK  189  A    between atoms: _437  and  _439
REMARK  190  A    between atoms: _439  and  _440
REMARK  191  A    between atoms: _439  and  _442
REMARK  192  A    between atoms: _442  and  _443
REMARK  193  A    between atoms: _443  and  _444
REMARK  194  A    between atoms: _444  and  _445
REMARK  195  A    between atoms: _445  and  _446
REMARK  196  A    between atoms: _450  and  _452
REMARK  197  A    between atoms: _452  and  _453
REMARK  198  A    between atoms: _452  and  _455
REMARK  199  A    between atoms: _455  and  _456
REMARK  200  A    between atoms: _461  and  _463
REMARK  201  A    between atoms: _463  and  _464
REMARK  202  A    between atoms: _463  and  _466
REMARK  203  A    between atoms: _466  and  _467
REMARK  204  A    between atoms: _477  and  _479
REMARK  205  A    between atoms: _479  and  _480
REMARK  206  A    between atoms: _482  and  _484
REMARK  207  A    between atoms: _484  and  _485
REMARK  208  A    between atoms: _484  and  _487
REMARK  209  A    between atoms: _487  and  _488
REMARK  210  A    between atoms: _491  and  _493
REMARK  211  A    between atoms: _493  and  _494
REMARK  212  A    between atoms: _493  and  _496
REMARK  213  A    between atoms: _496  and  _497
REMARK  214  A    between atoms: _497  and  _498
REMARK  215  A    between atoms: _498  and  _499
REMARK  216  A    between atoms: _499  and  _500
REMARK  217  A    between atoms: _504  and  _506
REMARK  218  A    between atoms: _506  and  _507
REMARK  219  A    between atoms: _506  and  _509
REMARK                            x       y       z     vdW  Elec       q    Type
REMARK                         _______ _______ _______ _____ _____    ______ ____
ROOT
ATOM      1  O   HOH     1      50.680 -46.122  57.338  0.00  0.00    +0.000 OA
ENDROOT
TORSDOF 0
REMARK  Name = ../refined-set-2016/1yet/1yet_pocket.pdb
REMARK  219 active torsions:
REMARK  status: ('A' for Active; 'I' for Inactive)
REMARK    1  A    between atoms: _1  and  _3
REMARK    2  A    between atoms: _3  and  _4
REMARK    3  A    between atoms: _3  and  _6
REMARK    4  A    between atoms: _6  and  _7
REMARK    5  A    between atoms: _10  and  _12
REMARK    6  A    between atoms: _12  and  _13
REMARK    7  A    between atoms: _12  and  _15
REMARK    8  A    between atoms: _15  and  _16
REMARK    9  A    between atoms: _19  and  _21
REMARK   10  A    between atoms: _21  and  _22
REMARK   11  A    between atoms: _21  and  _24
REMARK   12  A    between atoms: _24  and  _25
REMARK   13  A    between atoms: _25  and  _26
REMARK   14  A    between atoms: _29  and  _31
REMARK   15  A    between atoms: _31  and  _32
REMARK   16  A    between atoms: _31  and  _34
REMARK   17  A    between atoms: _34  and  _35
REMARK   18  A    between atoms: _38  and  _40
REMARK   19  A    between atoms: _40  and  _41
REMARK   20  A    between atoms: _40  and  _43
REMARK   21  A    between atoms: _43  and  _44
REMARK   22  A    between atoms: _47  and  _49
REMARK   23  A    between atoms: _49  and  _50
REMARK   24  A    between atoms: _49  and  _52
REMARK   25  A    between atoms: _52  and  _53
REMARK   26  A    between atoms: _55  and  _57
REMARK   27  A    between atoms: _57  and  _58
REMARK   28  A    between atoms: _57  and  _60
REMARK   29  A    between atoms: _60  and  _61
REMARK   30  A    between atoms: _66  and  _68
REMARK   31  A    between atoms: _68  and  _69
REMARK   32  A    between atoms: _68  and  _71
REMARK   33  A    between atoms: _71  and  _72
REMARK   34  A    between atoms: _74  and  _76
REMARK   35  A    between atoms: _76  and  _77
REMARK   36  A    between atoms: _76  and  _79
REMARK   37  A    between atoms: _79  and  _80
REMARK   38  A    between atoms: _82  and  _84
REMARK   39  A    between atoms: _84  and  _85
REMARK   40  A    between atoms: _84  and  _87
REMARK   41  A    between atoms: _87  and  _88
REMARK   42  A    between atoms: _91  and  _93
REMARK   43  A    between atoms: _93  and  _94
REMARK   44  A    between atoms: _97  and  _99
REMARK   45  A    between atoms: _99  and  _100
REMARK   46  A    between atoms: _99  and  _102
REMARK   47  A    between atoms: _102  and  _103
REMARK   48  A    between atoms: _106  and  _108
REMARK   49  A    between atoms: _108  and  _109
REMARK   50  A    between atoms: _108  and  _111
REMARK   51  A    between atoms: _111  and  _112
REMARK   52  A    between atoms: _115  and  _117
REMARK   53  A    between atoms: _117  and  _118
REMARK   54  A    between atoms: _117  and  _120
REMARK   55  A    between atoms: _120  and  _121
REMARK   56  A    between atoms: _121  and  _122
REMARK   57  A    between atoms: _122  and  _123
REMARK   58  A    between atoms: _123  and  _124
REMARK   59  A    between atoms: _128  and  _130
REMARK   60  A    between atoms: _130  and  _131
REMARK   61  A    between atoms: _130  and  _133
REMARK   62  A    between atoms: _133  and  _134
REMARK   63  A    between atoms: _137  and  _139
REMARK   64  A    between atoms: _139  and  _140
REMARK   65  A    between atoms: _139  and  _142
REMARK   66  A    between atoms: _142  and  _143
REMARK   67  A    between atoms: _143  and  _144
REMARK   68  A    between atoms: _147  and  _149
REMARK   69  A    between atoms: _149  and  _150
REMARK   70  A    between atoms: _149  and  _152
REMARK   71  A    between atoms: _152  and  _153
REMARK   72  A    between atoms: _156  and  _158
REMARK   73  A    between atoms: _158  and  _159
REMARK   74  A    between atoms: _158  and  _161
REMARK   75  A    between atoms: _161  and  _162
REMARK   76  A    between atoms: _165  and  _167
REMARK   77  A    between atoms: _167  and  _168
REMARK   78  A    between atoms: _167  and  _170
REMARK   79  A    between atoms: _173  and  _175
REMARK   80  A    between atoms: _175  and  _176
REMARK   81  A    between atoms: _175  and  _178
REMARK   82  A    between atoms: _178  and  _179
REMARK   83  A    between atoms: _182  and  _184
REMARK   84  A    between atoms: _184  and  _185
REMARK   85  A    between atoms: _184  and  _187
REMARK   86  A    between atoms: _187  and  _188
REMARK   87  A    between atoms: _191  and  _193
REMARK   88  A    between atoms: _193  and  _194
REMARK   89  A    between atoms: _196  and  _198
REMARK   90  A    between atoms: _198  and  _199
REMARK   91  A    between atoms: _198  and  _201
REMARK   92  A    between atoms: _201  and  _202
REMARK   93  A    between atoms: _205  and  _207
REMARK   94  A    between atoms: _207  and  _208
REMARK   95  A    between atoms: _210  and  _212
REMARK   96  A    between atoms: _212  and  _213
REMARK   97  A    between atoms: _212  and  _215
REMARK   98  A    between atoms: _215  and  _216
REMARK   99  A    between atoms: _216  and  _217
REMARK  100  A    between atoms: _219  and  _221
REMARK  101  A    between atoms: _221  and  _222
REMARK  102  A    between atoms: _221  and  _224
REMARK  103  A    between atoms: _224  and  _225
REMARK  104  A    between atoms: _228  and  _230
REMARK  105  A    between atoms: _230  and  _231
REMARK  106  A    between atoms: _234  and  _236
REMARK  107  A    between atoms: _236  and  _237
REMARK  108  A    between atoms: _236  and  _239
REMARK  109  A    between atoms: _239  and  _240
REMARK  110  A    between atoms: _243  and  _245
REMARK  111  A    between atoms: _245  and  _246
REMARK  112  A    between atoms: _245  and  _248
REMARK  113  A    between atoms: _248  and  _249
REMARK  114  A    between atoms: _252  and  _254
REMARK  115  A    between atoms: _254  and  _255
REMARK  116  A    between atoms: _254  and  _257
REMARK  117  A    between atoms: _257  and  _258
REMARK  118  A    between atoms: _263  and  _265
REMARK  119  A    between atoms: _265  and  _266
REMARK  120  A    between atoms: _265  and  _268
REMARK  121  A    between atoms: _268  and  _269
REMARK  122  A    between atoms: _274  and  _276
REMARK  123  A    between atoms: _276  and  _277
REMARK  124  A    between atoms: _276  and  _279
REMARK  125  A    between atoms: _279  and  _280
REMARK  126  A    between atoms: _283  and  _285
REMARK  127  A    between atoms: _285  and  _286
REMARK  128  A    between atoms: _288  and  _290
REMARK  129  A    between atoms: _290  and  _291
REMARK  130  A    between atoms: _290  and  _293
REMARK  131  A    between atoms: _293  and  _294
REMARK  132  A    between atoms: _297  and  _299
REMARK  133  A    between atoms: _299  and  _300
REMARK  134  A    between atoms: _299  and  _302
REMARK  135  A    between atoms: _302  and  _303
REMARK  136  A    between atoms: _303  and  _304
REMARK  137  A    between atoms: _304  and  _305
REMARK  138  A    between atoms: _305  and  _306
REMARK  139  A    between atoms: _310  and  _312
REMARK  140  A    between atoms: _312  and  _313
REMARK  141  A    between atoms: _312  and  _315
REMARK  142  A    between atoms: _315  and  _316
REMARK  143  A    between atoms: _319  and  _321
REMARK  144  A    between atoms: _321  and  _322
REMARK  145  A    between atoms: _324  and  _326
REMARK  146  A    between atoms: _326  and  _327
REMARK  147  A    between atoms: _326  and  _329
REMARK  148  A    between atoms: _329  and  _330
REMARK  149  A    between atoms: _336  and  _338
REMARK  150  A    between atoms: _338  and  _339
REMARK  151  A    between atoms: _341  and  _343
REMARK  152  A    between atoms: _343  and  _344
REMARK  153  A    between atoms: _343  and  _346
REMARK  154  A    between atoms: _349  and  _351
REMARK  155  A    between atoms: _351  and  _352
REMARK  156  A    between atoms: _354  and  _356
REMARK  157  A    between atoms: _356  and  _357
REMARK  158  A    between atoms: _356  and  _359
REMARK  159  A    between atoms: _359  and  _360
REMARK  160  A    between atoms: _366  and  _368
REMARK  161  A    between atoms: _368  and  _369
REMARK  162  A    between atoms: _368  and  _371
REMARK  163  A    between atoms: _371  and  _372
REMARK  164  A    between atoms: _377  and  _378
REMARK  165  A    between atoms: _380  and  _382
REMARK  166  A    between atoms: _382  and  _383
REMARK  167  A    between atoms: _382  and  _385
REMARK  168  A    between atoms: _385  and  _386
REMARK  169  A    between atoms: _388  and  _390
REMARK  170  A    between atoms: _390  and  _391
REMARK  171  A    between atoms: _394  and  _396
REMARK  172  A    between atoms: _396  and  _397
REMARK  173  A    between atoms: _396  and  _399
REMARK  174  A    between atoms: _402  and  _404
REMARK  175  A    between atoms: _404  and  _405
REMARK  176  A    between atoms: _404  and  _407
REMARK  177  A    between atoms: _407  and  _408
REMARK  178  A    between atoms: _411  and  _413
REMARK  179  A    between atoms: _413  and  _414
REMARK  180  A    between atoms: _413  and  _416
REMARK  181  A    between atoms: _419  and  _421
REMARK  182  A    between atoms: _421  and  _422
REMARK  183  A    between atoms: _421  and  _424
REMARK  184  A    between atoms: _424  and  _425
REMARK  185  A    between atoms: _428  and  _430
REMARK  186  A    between atoms: _430  and  _431
REMARK  187  A    between atoms: _430  and  _433
REMARK  188  A    between atoms: _433  and  _434
REMARK  189  A    between atoms: _437  and  _439
REMARK  190  A    between atoms: _439  and  _440
REMARK  191  A    between atoms: _439  and  _442
REMARK  192  A    between atoms: _442  and  _443
REMARK  193  A    between atoms: _443  and  _444
REMARK  194  A    between atoms: _444  and  _445
REMARK  195  A    between atoms: _445  and  _446
REMARK  196  A    between atoms: _450  and  _452
REMARK  197  A    between atoms: _452  and  _453
REMARK  198  A    between atoms: _452  and  _455
REMARK  199  A    between atoms: _455  and  _456
REMARK  200  A    between atoms: _461  and  _463
REMARK  201  A    between atoms: _463  and  _464
REMARK  202  A    between atoms: _463  and  _466
REMARK  203  A    between atoms: _466  and  _467
REMARK  204  A    between atoms: _477  and  _479
REMARK  205  A    between atoms: _479  and  _480
REMARK  206  A    between atoms: _482  and  _484
REMARK  207  A    between atoms: _484  and  _485
REMARK  208  A    between atoms: _484  and  _487
REMARK  209  A    between atoms: _487  and  _488
REMARK  210  A    between atoms: _491  and  _493
REMARK  211  A    between atoms: _493  and  _494
REMARK  212  A    between atoms: _493  and  _496
REMARK  213  A    between atoms: _496  and  _497
REMARK  214  A    between atoms: _497  and  _498
REMARK  215  A    between atoms: _498  and  _499
REMARK  216  A    between atoms: _499  and  _500
REMARK  217  A    between atoms: _504  and  _506
REMARK  218  A    between atoms: _506  and  _507
REMARK  219  A    between atoms: _506  and  _509
REMARK                            x       y       z     vdW  Elec       q    Type
REMARK                         _______ _______ _______ _____ _____    ______ ____
ROOT
ATOM      1  O   HOH     1      35.303 -45.543  72.795  0.00  0.00    +0.000 OA
ENDROOT
TORSDOF 0
REMARK  Name = ../refined-set-2016/1yet/1yet_pocket.pdb
REMARK  219 active torsions:
REMARK  status: ('A' for Active; 'I' for Inactive)
REMARK    1  A    between atoms: _1  and  _3
REMARK    2  A    between atoms: _3  and  _4
REMARK    3  A    between atoms: _3  and  _6
REMARK    4  A    between atoms: _6  and  _7
REMARK    5  A    between atoms: _10  and  _12
REMARK    6  A    between atoms: _12  and  _13
REMARK    7  A    between atoms: _12  and  _15
REMARK    8  A    between atoms: _15  and  _16
REMARK    9  A    between atoms: _19  and  _21
REMARK   10  A    between atoms: _21  and  _22
REMARK   11  A    between atoms: _21  and  _24
REMARK   12  A    between atoms: _24  and  _25
REMARK   13  A    between atoms: _25  and  _26
REMARK   14  A    between atoms: _29  and  _31
REMARK   15  A    between atoms: _31  and  _32
REMARK   16  A    between atoms: _31  and  _34
REMARK   17  A    between atoms: _34  and  _35
REMARK   18  A    between atoms: _38  and  _40
REMARK   19  A    between atoms: _40  and  _41
REMARK   20  A    between atoms: _40  and  _43
REMARK   21  A    between atoms: _43  and  _44
REMARK   22  A    between atoms: _47  and  _49
REMARK   23  A    between atoms: _49  and  _50
REMARK   24  A    between atoms: _49  and  _52
REMARK   25  A    between atoms: _52  and  _53
REMARK   26  A    between atoms: _55  and  _57
REMARK   27  A    between atoms: _57  and  _58
REMARK   28  A    between atoms: _57  and  _60
REMARK   29  A    between atoms: _60  and  _61
REMARK   30  A    between atoms: _66  and  _68
REMARK   31  A    between atoms: _68  and  _69
REMARK   32  A    between atoms: _68  and  _71
REMARK   33  A    between atoms: _71  and  _72
REMARK   34  A    between atoms: _74  and  _76
REMARK   35  A    between atoms: _76  and  _77
REMARK   36  A    between atoms: _76  and  _79
REMARK   37  A    between atoms: _79  and  _80
REMARK   38  A    between atoms: _82  and  _84
REMARK   39  A    between atoms: _84  and  _85
REMARK   40  A    between atoms: _84  and  _87
REMARK   41  A    between atoms: _87  and  _88
REMARK   42  A    between atoms: _91  and  _93
REMARK   43  A    between atoms: _93  and  _94
REMARK   44  A    between atoms: _97  and  _99
REMARK   45  A    between atoms: _99  and  _100
REMARK   46  A    between atoms: _99  and  _102
REMARK   47  A    between atoms: _102  and  _103
REMARK   48  A    between atoms: _106  and  _108
REMARK   49  A    between atoms: _108  and  _109
REMARK   50  A    between atoms: _108  and  _111
REMARK   51  A    between atoms: _111  and  _112
REMARK   52  A    between atoms: _115  and  _117
REMARK   53  A    between atoms: _117  and  _118
REMARK   54  A    between atoms: _117  and  _120
REMARK   55  A    between atoms: _120  and  _121
REMARK   56  A    between atoms: _121  and  _122
REMARK   57  A    between atoms: _122  and  _123
REMARK   58  A    between atoms: _123  and  _124
REMARK   59  A    between atoms: _128  and  _130
REMARK   60  A    between atoms: _130  and  _131
REMARK   61  A    between atoms: _130  and  _133
REMARK   62  A    between atoms: _133  and  _134
REMARK   63  A    between atoms: _137  and  _139
REMARK   64  A    between atoms: _139  and  _140
REMARK   65  A    between atoms: _139  and  _142
REMARK   66  A    between atoms: _142  and  _143
REMARK   67  A    between atoms: _143  and  _144
REMARK   68  A    between atoms: _147  and  _149
REMARK   69  A    between atoms: _149  and  _150
REMARK   70  A    between atoms: _149  and  _152
REMARK   71  A    between atoms: _152  and  _153
REMARK   72  A    between atoms: _156  and  _158
REMARK   73  A    between atoms: _158  and  _159
REMARK   74  A    between atoms: _158  and  _161
REMARK   75  A    between atoms: _161  and  _162
REMARK   76  A    between atoms: _165  and  _167
REMARK   77  A    between atoms: _167  and  _168
REMARK   78  A    between atoms: _167  and  _170
REMARK   79  A    between atoms: _173  and  _175
REMARK   80  A    between atoms: _175  and  _176
REMARK   81  A    between atoms: _175  and  _178
REMARK   82  A    between atoms: _178  and  _179
REMARK   83  A    between atoms: _182  and  _184
REMARK   84  A    between atoms: _184  and  _185
REMARK   85  A    between atoms: _184  and  _187
REMARK   86  A    between atoms: _187  and  _188
REMARK   87  A    between atoms: _191  and  _193
REMARK   88  A    between atoms: _193  and  _194
REMARK   89  A    between atoms: _196  and  _198
REMARK   90  A    between atoms: _198  and  _199
REMARK   91  A    between atoms: _198  and  _201
REMARK   92  A    between atoms: _201  and  _202
REMARK   93  A    between atoms: _205  and  _207
REMARK   94  A    between atoms: _207  and  _208
REMARK   95  A    between atoms: _210  and  _212
REMARK   96  A    between atoms: _212  and  _213
REMARK   97  A    between atoms: _212  and  _215
REMARK   98  A    between atoms: _215  and  _216
REMARK   99  A    between atoms: _216  and  _217
REMARK  100  A    between atoms: _219  and  _221
REMARK  101  A    between atoms: _221  and  _222
REMARK  102  A    between atoms: _221  and  _224
REMARK  103  A    between atoms: _224  and  _225
REMARK  104  A    between atoms: _228  and  _230
REMARK  105  A    between atoms: _230  and  _231
REMARK  106  A    between atoms: _234  and  _236
REMARK  107  A    between atoms: _236  and  _237
REMARK  108  A    between atoms: _236  and  _239
REMARK  109  A    between atoms: _239  and  _240
REMARK  110  A    between atoms: _243  and  _245
REMARK  111  A    between atoms: _245  and  _246
REMARK  112  A    between atoms: _245  and  _248
REMARK  113  A    between atoms: _248  and  _249
REMARK  114  A    between atoms: _252  and  _254
REMARK  115  A    between atoms: _254  and  _255
REMARK  116  A    between atoms: _254  and  _257
REMARK  117  A    between atoms: _257  and  _258
REMARK  118  A    between atoms: _263  and  _265
REMARK  119  A    between atoms: _265  and  _266
REMARK  120  A    between atoms: _265  and  _268
REMARK  121  A    between atoms: _268  and  _269
REMARK  122  A    between atoms: _274  and  _276
REMARK  123  A    between atoms: _276  and  _277
REMARK  124  A    between atoms: _276  and  _279
REMARK  125  A    between atoms: _279  and  _280
REMARK  126  A    between atoms: _283  and  _285
REMARK  127  A    between atoms: _285  and  _286
REMARK  128  A    between atoms: _288  and  _290
REMARK  129  A    between atoms: _290  and  _291
REMARK  130  A    between atoms: _290  and  _293
REMARK  131  A    between atoms: _293  and  _294
REMARK  132  A    between atoms: _297  and  _299
REMARK  133  A    between atoms: _299  and  _300
REMARK  134  A    between atoms: _299  and  _302
REMARK  135  A    between atoms: _302  and  _303
REMARK  136  A    between atoms: _303  and  _304
REMARK  137  A    between atoms: _304  and  _305
REMARK  138  A    between atoms: _305  and  _306
REMARK  139  A    between atoms: _310  and  _312
REMARK  140  A    between atoms: _312  and  _313
REMARK  141  A    between atoms: _312  and  _315
REMARK  142  A    between atoms: _315  and  _316
REMARK  143  A    between atoms: _319  and  _321
REMARK  144  A    between atoms: _321  and  _322
REMARK  145  A    between atoms: _324  and  _326
REMARK  146  A    between atoms: _326  and  _327
REMARK  147  A    between atoms: _326  and  _329
REMARK  148  A    between atoms: _329  and  _330
REMARK  149  A    between atoms: _336  and  _338
REMARK  150  A    between atoms: _338  and  _339
REMARK  151  A    between atoms: _341  and  _343
REMARK  152  A    between atoms: _343  and  _344
REMARK  153  A    between atoms: _343  and  _346
REMARK  154  A    between atoms: _349  and  _351
REMARK  155  A    between atoms: _351  and  _352
REMARK  156  A    between atoms: _354  and  _356
REMARK  157  A    between atoms: _356  and  _357
REMARK  158  A    between atoms: _356  and  _359
REMARK  159  A    between atoms: _359  and  _360
REMARK  160  A    between atoms: _366  and  _368
REMARK  161  A    between atoms: _368  and  _369
REMARK  162  A    between atoms: _368  and  _371
REMARK  163  A    between atoms: _371  and  _372
REMARK  164  A    between atoms: _377  and  _378
REMARK  165  A    between atoms: _380  and  _382
REMARK  166  A    between atoms: _382  and  _383
REMARK  167  A    between atoms: _382  and  _385
REMARK  168  A    between atoms: _385  and  _386
REMARK  169  A    between atoms: _388  and  _390
REMARK  170  A    between atoms: _390  and  _391
REMARK  171  A    between atoms: _394  and  _396
REMARK  172  A    between atoms: _396  and  _397
REMARK  173  A    between atoms: _396  and  _399
REMARK  174  A    between atoms: _402  and  _404
REMARK  175  A    between atoms: _404  and  _405
REMARK  176  A    between atoms: _404  and  _407
REMARK  177  A    between atoms: _407  and  _408
REMARK  178  A    between atoms: _411  and  _413
REMARK  179  A    between atoms: _413  and  _414
REMARK  180  A    between atoms: _413  and  _416
REMARK  181  A    between atoms: _419  and  _421
REMARK  182  A    between atoms: _421  and  _422
REMARK  183  A    between atoms: _421  and  _424
REMARK  184  A    between atoms: _424  and  _425
REMARK  185  A    between atoms: _428  and  _430
REMARK  186  A    between atoms: _430  and  _431
REMARK  187  A    between atoms: _430  and  _433
REMARK  188  A    between atoms: _433  and  _434
REMARK  189  A    between atoms: _437  and  _439
REMARK  190  A    between atoms: _439  and  _440
REMARK  191  A    between atoms: _439  and  _442
REMARK  192  A    between atoms: _442  and  _443
REMARK  193  A    between atoms: _443  and  _444
REMARK  194  A    between atoms: _444  and  _445
REMARK  195  A    between atoms: _445  and  _446
REMARK  196  A    between atoms: _450  and  _452
REMARK  197  A    between atoms: _452  and  _453
REMARK  198  A    between atoms: _452  and  _455
REMARK  199  A    between atoms: _455  and  _456
REMARK  200  A    between atoms: _461  and  _463
REMARK  201  A    between atoms: _463  and  _464
REMARK  202  A    between atoms: _463  and  _466
REMARK  203  A    between atoms: _466  and  _467
REMARK  204  A    between atoms: _477  and  _479
REMARK  205  A    between atoms: _479  and  _480
REMARK  206  A    between atoms: _482  and  _484
REMARK  207  A    between atoms: _484  and  _485
REMARK  208  A    between atoms: _484  and  _487
REMARK  209  A    between atoms: _487  and  _488
REMARK  210  A    between atoms: _491  and  _493
REMARK  211  A    between atoms: _493  and  _494
REMARK  212  A    between atoms: _493  and  _496
REMARK  213  A    between atoms: _496  and  _497
REMARK  214  A    between atoms: _497  and  _498
REMARK  215  A    between atoms: _498  and  _499
REMARK  216  A    between atoms: _499  and  _500
REMARK  217  A    between atoms: _504  and  _506
REMARK  218  A    between atoms: _506  and  _507
REMARK  219  A    between atoms: _506  and  _509
REMARK                            x       y       z     vdW  Elec       q    Type
REMARK                         _______ _______ _______ _____ _____    ______ ____
ROOT
ATOM      1  O   HOH     1      38.008 -37.231  70.704  0.00  0.00    +0.000 OA
ENDROOT
TORSDOF 0
REMARK  Name = ../refined-set-2016/1yet/1yet_pocket.pdb
REMARK  219 active torsions:
REMARK  status: ('A' for Active; 'I' for Inactive)
REMARK    1  A    between atoms: _1  and  _3
REMARK    2  A    between atoms: _3  and  _4
REMARK    3  A    between atoms: _3  and  _6
REMARK    4  A    between atoms: _6  and  _7
REMARK    5  A    between atoms: _10  and  _12
REMARK    6  A    between atoms: _12  and  _13
REMARK    7  A    between atoms: _12  and  _15
REMARK    8  A    between atoms: _15  and  _16
REMARK    9  A    between atoms: _19  and  _21
REMARK   10  A    between atoms: _21  and  _22
REMARK   11  A    between atoms: _21  and  _24
REMARK   12  A    between atoms: _24  and  _25
REMARK   13  A    between atoms: _25  and  _26
REMARK   14  A    between atoms: _29  and  _31
REMARK   15  A    between atoms: _31  and  _32
REMARK   16  A    between atoms: _31  and  _34
REMARK   17  A    between atoms: _34  and  _35
REMARK   18  A    between atoms: _38  and  _40
REMARK   19  A    between atoms: _40  and  _41
REMARK   20  A    between atoms: _40  and  _43
REMARK   21  A    between atoms: _43  and  _44
REMARK   22  A    between atoms: _47  and  _49
REMARK   23  A    between atoms: _49  and  _50
REMARK   24  A    between atoms: _49  and  _52
REMARK   25  A    between atoms: _52  and  _53
REMARK   26  A    between atoms: _55  and  _57
REMARK   27  A    between atoms: _57  and  _58
REMARK   28  A    between atoms: _57  and  _60
REMARK   29  A    between atoms: _60  and  _61
REMARK   30  A    between atoms: _66  and  _68
REMARK   31  A    between atoms: _68  and  _69
REMARK   32  A    between atoms: _68  and  _71
REMARK   33  A    between atoms: _71  and  _72
REMARK   34  A    between atoms: _74  and  _76
REMARK   35  A    between atoms: _76  and  _77
REMARK   36  A    between atoms: _76  and  _79
REMARK   37  A    between atoms: _79  and  _80
REMARK   38  A    between atoms: _82  and  _84
REMARK   39  A    between atoms: _84  and  _85
REMARK   40  A    between atoms: _84  and  _87
REMARK   41  A    between atoms: _87  and  _88
REMARK   42  A    between atoms: _91  and  _93
REMARK   43  A    between atoms: _93  and  _94
REMARK   44  A    between atoms: _97  and  _99
REMARK   45  A    between atoms: _99  and  _100
REMARK   46  A    between atoms: _99  and  _102
REMARK   47  A    between atoms: _102  and  _103
REMARK   48  A    between atoms: _106  and  _108
REMARK   49  A    between atoms: _108  and  _109
REMARK   50  A    between atoms: _108  and  _111
REMARK   51  A    between atoms: _111  and  _112
REMARK   52  A    between atoms: _115  and  _117
REMARK   53  A    between atoms: _117  and  _118
REMARK   54  A    between atoms: _117  and  _120
REMARK   55  A    between atoms: _120  and  _121
REMARK   56  A    between atoms: _121  and  _122
REMARK   57  A    between atoms: _122  and  _123
REMARK   58  A    between atoms: _123  and  _124
REMARK   59  A    between atoms: _128  and  _130
REMARK   60  A    between atoms: _130  and  _131
REMARK   61  A    between atoms: _130  and  _133
REMARK   62  A    between atoms: _133  and  _134
REMARK   63  A    between atoms: _137  and  _139
REMARK   64  A    between atoms: _139  and  _140
REMARK   65  A    between atoms: _139  and  _142
REMARK   66  A    between atoms: _142  and  _143
REMARK   67  A    between atoms: _143  and  _144
REMARK   68  A    between atoms: _147  and  _149
REMARK   69  A    between atoms: _149  and  _150
REMARK   70  A    between atoms: _149  and  _152
REMARK   71  A    between atoms: _152  and  _153
REMARK   72  A    between atoms: _156  and  _158
REMARK   73  A    between atoms: _158  and  _159
REMARK   74  A    between atoms: _158  and  _161
REMARK   75  A    between atoms: _161  and  _162
REMARK   76  A    between atoms: _165  and  _167
REMARK   77  A    between atoms: _167  and  _168
REMARK   78  A    between atoms: _167  and  _170
REMARK   79  A    between atoms: _173  and  _175
REMARK   80  A    between atoms: _175  and  _176
REMARK   81  A    between atoms: _175  and  _178
REMARK   82  A    between atoms: _178  and  _179
REMARK   83  A    between atoms: _182  and  _184
REMARK   84  A    between atoms: _184  and  _185
REMARK   85  A    between atoms: _184  and  _187
REMARK   86  A    between atoms: _187  and  _188
REMARK   87  A    between atoms: _191  and  _193
REMARK   88  A    between atoms: _193  and  _194
REMARK   89  A    between atoms: _196  and  _198
REMARK   90  A    between atoms: _198  and  _199
REMARK   91  A    between atoms: _198  and  _201
REMARK   92  A    between atoms: _201  and  _202
REMARK   93  A    between atoms: _205  and  _207
REMARK   94  A    between atoms: _207  and  _208
REMARK   95  A    between atoms: _210  and  _212
REMARK   96  A    between atoms: _212  and  _213
REMARK   97  A    between atoms: _212  and  _215
REMARK   98  A    between atoms: _215  and  _216
REMARK   99  A    between atoms: _216  and  _217
REMARK  100  A    between atoms: _219  and  _221
REMARK  101  A    between atoms: _221  and  _222
REMARK  102  A    between atoms: _221  and  _224
REMARK  103  A    between atoms: _224  and  _225
REMARK  104  A    between atoms: _228  and  _230
REMARK  105  A    between atoms: _230  and  _231
REMARK  106  A    between atoms: _234  and  _236
REMARK  107  A    between atoms: _236  and  _237
REMARK  108  A    between atoms: _236  and  _239
REMARK  109  A    between atoms: _239  and  _240
REMARK  110  A    between atoms: _243  and  _245
REMARK  111  A    between atoms: _245  and  _246
REMARK  112  A    between atoms: _245  and  _248
REMARK  113  A    between atoms: _248  and  _249
REMARK  114  A    between atoms: _252  and  _254
REMARK  115  A    between atoms: _254  and  _255
REMARK  116  A    between atoms: _254  and  _257
REMARK  117  A    between atoms: _257  and  _258
REMARK  118  A    between atoms: _263  and  _265
REMARK  119  A    between atoms: _265  and  _266
REMARK  120  A    between atoms: _265  and  _268
REMARK  121  A    between atoms: _268  and  _269
REMARK  122  A    between atoms: _274  and  _276
REMARK  123  A    between atoms: _276  and  _277
REMARK  124  A    between atoms: _276  and  _279
REMARK  125  A    between atoms: _279  and  _280
REMARK  126  A    between atoms: _283  and  _285
REMARK  127  A    between atoms: _285  and  _286
REMARK  128  A    between atoms: _288  and  _290
REMARK  129  A    between atoms: _290  and  _291
REMARK  130  A    between atoms: _290  and  _293
REMARK  131  A    between atoms: _293  and  _294
REMARK  132  A    between atoms: _297  and  _299
REMARK  133  A    between atoms: _299  and  _300
REMARK  134  A    between atoms: _299  and  _302
REMARK  135  A    between atoms: _302  and  _303
REMARK  136  A    between atoms: _303  and  _304
REMARK  137  A    between atoms: _304  and  _305
REMARK  138  A    between atoms: _305  and  _306
REMARK  139  A    between atoms: _310  and  _312
REMARK  140  A    between atoms: _312  and  _313
REMARK  141  A    between atoms: _312  and  _315
REMARK  142  A    between atoms: _315  and  _316
REMARK  143  A    between atoms: _319  and  _321
REMARK  144  A    between atoms: _321  and  _322
REMARK  145  A    between atoms: _324  and  _326
REMARK  146  A    between atoms: _326  and  _327
REMARK  147  A    between atoms: _326  and  _329
REMARK  148  A    between atoms: _329  and  _330
REMARK  149  A    between atoms: _336  and  _338
REMARK  150  A    between atoms: _338  and  _339
REMARK  151  A    between atoms: _341  and  _343
REMARK  152  A    between atoms: _343  and  _344
REMARK  153  A    between atoms: _343  and  _346
REMARK  154  A    between atoms: _349  and  _351
REMARK  155  A    between atoms: _351  and  _352
REMARK  156  A    between atoms: _354  and  _356
REMARK  157  A    between atoms: _356  and  _357
REMARK  158  A    between atoms: _356  and  _359
REMARK  159  A    between atoms: _359  and  _360
REMARK  160  A    between atoms: _366  and  _368
REMARK  161  A    between atoms: _368  and  _369
REMARK  162  A    between atoms: _368  and  _371
REMARK  163  A    between atoms: _371  and  _372
REMARK  164  A    between atoms: _377  and  _378
REMARK  165  A    between atoms: _380  and  _382
REMARK  166  A    between atoms: _382  and  _383
REMARK  167  A    between atoms: _382  and  _385
REMARK  168  A    between atoms: _385  and  _386
REMARK  169  A    between atoms: _388  and  _390
REMARK  170  A    between atoms: _390  and  _391
REMARK  171  A    between atoms: _394  and  _396
REMARK  172  A    between atoms: _396  and  _397
REMARK  173  A    between atoms: _396  and  _399
REMARK  174  A    between atoms: _402  and  _404
REMARK  175  A    between atoms: _404  and  _405
REMARK  176  A    between atoms: _404  and  _407
REMARK  177  A    between atoms: _407  and  _408
REMARK  178  A    between atoms: _411  and  _413
REMARK  179  A    between atoms: _413  and  _414
REMARK  180  A    between atoms: _413  and  _416
REMARK  181  A    between atoms: _419  and  _421
REMARK  182  A    between atoms: _421  and  _422
REMARK  183  A    between atoms: _421  and  _424
REMARK  184  A    between atoms: _424  and  _425
REMARK  185  A    between atoms: _428  and  _430
REMARK  186  A    between atoms: _430  and  _431
REMARK  187  A    between atoms: _430  and  _433
REMARK  188  A    between atoms: _433  and  _434
REMARK  189  A    between atoms: _437  and  _439
REMARK  190  A    between atoms: _439  and  _440
REMARK  191  A    between atoms: _439  and  _442
REMARK  192  A    between atoms: _442  and  _443
REMARK  193  A    between atoms: _443  and  _444
REMARK  194  A    between atoms: _444  and  _445
REMARK  195  A    between atoms: _445  and  _446
REMARK  196  A    between atoms: _450  and  _452
REMARK  197  A    between atoms: _452  and  _453
REMARK  198  A    between atoms: _452  and  _455
REMARK  199  A    between atoms: _455  and  _456
REMARK  200  A    between atoms: _461  and  _463
REMARK  201  A    between atoms: _463  and  _464
REMARK  202  A    between atoms: _463  and  _466
REMARK  203  A    between atoms: _466  and  _467
REMARK  204  A    between atoms: _477  and  _479
REMARK  205  A    between atoms: _479  and  _480
REMARK  206  A    between atoms: _482  and  _484
REMARK  207  A    between atoms: _484  and  _485
REMARK  208  A    between atoms: _484  and  _487
REMARK  209  A    between atoms: _487  and  _488
REMARK  210  A    between atoms: _491  and  _493
REMARK  211  A    between atoms: _493  and  _494
REMARK  212  A    between atoms: _493  and  _496
REMARK  213  A    between atoms: _496  and  _497
REMARK  214  A    between atoms: _497  and  _498
REMARK  215  A    between atoms: _498  and  _499
REMARK  216  A    between atoms: _499  and  _500
REMARK  217  A    between atoms: _504  and  _506
REMARK  218  A    between atoms: _506  and  _507
REMARK  219  A    between atoms: _506  and  _509
REMARK                            x       y       z     vdW  Elec       q    Type
REMARK                         _______ _______ _______ _____ _____    ______ ____
ROOT
ATOM      1  O   HOH     1      38.951 -47.059  72.868  0.00  0.00    +0.000 OA
ENDROOT
TORSDOF 0
REMARK  Name = ../refined-set-2016/1yet/1yet_pocket.pdb
REMARK  219 active torsions:
REMARK  status: ('A' for Active; 'I' for Inactive)
REMARK    1  A    between atoms: _1  and  _3
REMARK    2  A    between atoms: _3  and  _4
REMARK    3  A    between atoms: _3  and  _6
REMARK    4  A    between atoms: _6  and  _7
REMARK    5  A    between atoms: _10  and  _12
REMARK    6  A    between atoms: _12  and  _13
REMARK    7  A    between atoms: _12  and  _15
REMARK    8  A    between atoms: _15  and  _16
REMARK    9  A    between atoms: _19  and  _21
REMARK   10  A    between atoms: _21  and  _22
REMARK   11  A    between atoms: _21  and  _24
REMARK   12  A    between atoms: _24  and  _25
REMARK   13  A    between atoms: _25  and  _26
REMARK   14  A    between atoms: _29  and  _31
REMARK   15  A    between atoms: _31  and  _32
REMARK   16  A    between atoms: _31  and  _34
REMARK   17  A    between atoms: _34  and  _35
REMARK   18  A    between atoms: _38  and  _40
REMARK   19  A    between atoms: _40  and  _41
REMARK   20  A    between atoms: _40  and  _43
REMARK   21  A    between atoms: _43  and  _44
REMARK   22  A    between atoms: _47  and  _49
REMARK   23  A    between atoms: _49  and  _50
REMARK   24  A    between atoms: _49  and  _52
REMARK   25  A    between atoms: _52  and  _53
REMARK   26  A    between atoms: _55  and  _57
REMARK   27  A    between atoms: _57  and  _58
REMARK   28  A    between atoms: _57  and  _60
REMARK   29  A    between atoms: _60  and  _61
REMARK   30  A    between atoms: _66  and  _68
REMARK   31  A    between atoms: _68  and  _69
REMARK   32  A    between atoms: _68  and  _71
REMARK   33  A    between atoms: _71  and  _72
REMARK   34  A    between atoms: _74  and  _76
REMARK   35  A    between atoms: _76  and  _77
REMARK   36  A    between atoms: _76  and  _79
REMARK   37  A    between atoms: _79  and  _80
REMARK   38  A    between atoms: _82  and  _84
REMARK   39  A    between atoms: _84  and  _85
REMARK   40  A    between atoms: _84  and  _87
REMARK   41  A    between atoms: _87  and  _88
REMARK   42  A    between atoms: _91  and  _93
REMARK   43  A    between atoms: _93  and  _94
REMARK   44  A    between atoms: _97  and  _99
REMARK   45  A    between atoms: _99  and  _100
REMARK   46  A    between atoms: _99  and  _102
REMARK   47  A    between atoms: _102  and  _103
REMARK   48  A    between atoms: _106  and  _108
REMARK   49  A    between atoms: _108  and  _109
REMARK   50  A    between atoms: _108  and  _111
REMARK   51  A    between atoms: _111  and  _112
REMARK   52  A    between atoms: _115  and  _117
REMARK   53  A    between atoms: _117  and  _118
REMARK   54  A    between atoms: _117  and  _120
REMARK   55  A    between atoms: _120  and  _121
REMARK   56  A    between atoms: _121  and  _122
REMARK   57  A    between atoms: _122  and  _123
REMARK   58  A    between atoms: _123  and  _124
REMARK   59  A    between atoms: _128  and  _130
REMARK   60  A    between atoms: _130  and  _131
REMARK   61  A    between atoms: _130  and  _133
REMARK   62  A    between atoms: _133  and  _134
REMARK   63  A    between atoms: _137  and  _139
REMARK   64  A    between atoms: _139  and  _140
REMARK   65  A    between atoms: _139  and  _142
REMARK   66  A    between atoms: _142  and  _143
REMARK   67  A    between atoms: _143  and  _144
REMARK   68  A    between atoms: _147  and  _149
REMARK   69  A    between atoms: _149  and  _150
REMARK   70  A    between atoms: _149  and  _152
REMARK   71  A    between atoms: _152  and  _153
REMARK   72  A    between atoms: _156  and  _158
REMARK   73  A    between atoms: _158  and  _159
REMARK   74  A    between atoms: _158  and  _161
REMARK   75  A    between atoms: _161  and  _162
REMARK   76  A    between atoms: _165  and  _167
REMARK   77  A    between atoms: _167  and  _168
REMARK   78  A    between atoms: _167  and  _170
REMARK   79  A    between atoms: _173  and  _175
REMARK   80  A    between atoms: _175  and  _176
REMARK   81  A    between atoms: _175  and  _178
REMARK   82  A    between atoms: _178  and  _179
REMARK   83  A    between atoms: _182  and  _184
REMARK   84  A    between atoms: _184  and  _185
REMARK   85  A    between atoms: _184  and  _187
REMARK   86  A    between atoms: _187  and  _188
REMARK   87  A    between atoms: _191  and  _193
REMARK   88  A    between atoms: _193  and  _194
REMARK   89  A    between atoms: _196  and  _198
REMARK   90  A    between atoms: _198  and  _199
REMARK   91  A    between atoms: _198  and  _201
REMARK   92  A    between atoms: _201  and  _202
REMARK   93  A    between atoms: _205  and  _207
REMARK   94  A    between atoms: _207  and  _208
REMARK   95  A    between atoms: _210  and  _212
REMARK   96  A    between atoms: _212  and  _213
REMARK   97  A    between atoms: _212  and  _215
REMARK   98  A    between atoms: _215  and  _216
REMARK   99  A    between atoms: _216  and  _217
REMARK  100  A    between atoms: _219  and  _221
REMARK  101  A    between atoms: _221  and  _222
REMARK  102  A    between atoms: _221  and  _224
REMARK  103  A    between atoms: _224  and  _225
REMARK  104  A    between atoms: _228  and  _230
REMARK  105  A    between atoms: _230  and  _231
REMARK  106  A    between atoms: _234  and  _236
REMARK  107  A    between atoms: _236  and  _237
REMARK  108  A    between atoms: _236  and  _239
REMARK  109  A    between atoms: _239  and  _240
REMARK  110  A    between atoms: _243  and  _245
REMARK  111  A    between atoms: _245  and  _246
REMARK  112  A    between atoms: _245  and  _248
REMARK  113  A    between atoms: _248  and  _249
REMARK  114  A    between atoms: _252  and  _254
REMARK  115  A    between atoms: _254  and  _255
REMARK  116  A    between atoms: _254  and  _257
REMARK  117  A    between atoms: _257  and  _258
REMARK  118  A    between atoms: _263  and  _265
REMARK  119  A    between atoms: _265  and  _266
REMARK  120  A    between atoms: _265  and  _268
REMARK  121  A    between atoms: _268  and  _269
REMARK  122  A    between atoms: _274  and  _276
REMARK  123  A    between atoms: _276  and  _277
REMARK  124  A    between atoms: _276  and  _279
REMARK  125  A    between atoms: _279  and  _280
REMARK  126  A    between atoms: _283  and  _285
REMARK  127  A    between atoms: _285  and  _286
REMARK  128  A    between atoms: _288  and  _290
REMARK  129  A    between atoms: _290  and  _291
REMARK  130  A    between atoms: _290  and  _293
REMARK  131  A    between atoms: _293  and  _294
REMARK  132  A    between atoms: _297  and  _299
REMARK  133  A    between atoms: _299  and  _300
REMARK  134  A    between atoms: _299  and  _302
REMARK  135  A    between atoms: _302  and  _303
REMARK  136  A    between atoms: _303  and  _304
REMARK  137  A    between atoms: _304  and  _305
REMARK  138  A    between atoms: _305  and  _306
REMARK  139  A    between atoms: _310  and  _312
REMARK  140  A    between atoms: _312  and  _313
REMARK  141  A    between atoms: _312  and  _315
REMARK  142  A    between atoms: _315  and  _316
REMARK  143  A    between atoms: _319  and  _321
REMARK  144  A    between atoms: _321  and  _322
REMARK  145  A    between atoms: _324  and  _326
REMARK  146  A    between atoms: _326  and  _327
REMARK  147  A    between atoms: _326  and  _329
REMARK  148  A    between atoms: _329  and  _330
REMARK  149  A    between atoms: _336  and  _338
REMARK  150  A    between atoms: _338  and  _339
REMARK  151  A    between atoms: _341  and  _343
REMARK  152  A    between atoms: _343  and  _344
REMARK  153  A    between atoms: _343  and  _346
REMARK  154  A    between atoms: _349  and  _351
REMARK  155  A    between atoms: _351  and  _352
REMARK  156  A    between atoms: _354  and  _356
REMARK  157  A    between atoms: _356  and  _357
REMARK  158  A    between atoms: _356  and  _359
REMARK  159  A    between atoms: _359  and  _360
REMARK  160  A    between atoms: _366  and  _368
REMARK  161  A    between atoms: _368  and  _369
REMARK  162  A    between atoms: _368  and  _371
REMARK  163  A    between atoms: _371  and  _372
REMARK  164  A    between atoms: _377  and  _378
REMARK  165  A    between atoms: _380  and  _382
REMARK  166  A    between atoms: _382  and  _383
REMARK  167  A    between atoms: _382  and  _385
REMARK  168  A    between atoms: _385  and  _386
REMARK  169  A    between atoms: _388  and  _390
REMARK  170  A    between atoms: _390  and  _391
REMARK  171  A    between atoms: _394  and  _396
REMARK  172  A    between atoms: _396  and  _397
REMARK  173  A    between atoms: _396  and  _399
REMARK  174  A    between atoms: _402  and  _404
REMARK  175  A    between atoms: _404  and  _405
REMARK  176  A    between atoms: _404  and  _407
REMARK  177  A    between atoms: _407  and  _408
REMARK  178  A    between atoms: _411  and  _413
REMARK  179  A    between atoms: _413  and  _414
REMARK  180  A    between atoms: _413  and  _416
REMARK  181  A    between atoms: _419  and  _421
REMARK  182  A    between atoms: _421  and  _422
REMARK  183  A    between atoms: _421  and  _424
REMARK  184  A    between atoms: _424  and  _425
REMARK  185  A    between atoms: _428  and  _430
REMARK  186  A    between atoms: _430  and  _431
REMARK  187  A    between atoms: _430  and  _433
REMARK  188  A    between atoms: _433  and  _434
REMARK  189  A    between atoms: _437  and  _439
REMARK  190  A    between atoms: _439  and  _440
REMARK  191  A    between atoms: _439  and  _442
REMARK  192  A    between atoms: _442  and  _443
REMARK  193  A    between atoms: _443  and  _444
REMARK  194  A    between atoms: _444  and  _445
REMARK  195  A    between atoms: _445  and  _446
REMARK  196  A    between atoms: _450  and  _452
REMARK  197  A    between atoms: _452  and  _453
REMARK  198  A    between atoms: _452  and  _455
REMARK  199  A    between atoms: _455  and  _456
REMARK  200  A    between atoms: _461  and  _463
REMARK  201  A    between atoms: _463  and  _464
REMARK  202  A    between atoms: _463  and  _466
REMARK  203  A    between atoms: _466  and  _467
REMARK  204  A    between atoms: _477  and  _479
REMARK  205  A    between atoms: _479  and  _480
REMARK  206  A    between atoms: _482  and  _484
REMARK  207  A    between atoms: _484  and  _485
REMARK  208  A    between atoms: _484  and  _487
REMARK  209  A    between atoms: _487  and  _488
REMARK  210  A    between atoms: _491  and  _493
REMARK  211  A    between atoms: _493  and  _494
REMARK  212  A    between atoms: _493  and  _496
REMARK  213  A    between atoms: _496  and  _497
REMARK  214  A    between atoms: _497  and  _498
REMARK  215  A    between atoms: _498  and  _499
REMARK  216  A    between atoms: _499  and  _500
REMARK  217  A    between atoms: _504  and  _506
REMARK  218  A    between atoms: _506  and  _507
REMARK  219  A    between atoms: _506  and  _509
REMARK                            x       y       z     vdW  Elec       q    Type
REMARK                         _______ _______ _______ _____ _____    ______ ____
ROOT
ATOM      1  O   HOH     1      50.485 -49.704  60.280  0.00  0.00    +0.000 OA
ENDROOT
TORSDOF 0
REMARK  Name = ../refined-set-2016/1yet/1yet_pocket.pdb
REMARK  219 active torsions:
REMARK  status: ('A' for Active; 'I' for Inactive)
REMARK    1  A    between atoms: _1  and  _3
REMARK    2  A    between atoms: _3  and  _4
REMARK    3  A    between atoms: _3  and  _6
REMARK    4  A    between atoms: _6  and  _7
REMARK    5  A    between atoms: _10  and  _12
REMARK    6  A    between atoms: _12  and  _13
REMARK    7  A    between atoms: _12  and  _15
REMARK    8  A    between atoms: _15  and  _16
REMARK    9  A    between atoms: _19  and  _21
REMARK   10  A    between atoms: _21  and  _22
REMARK   11  A    between atoms: _21  and  _24
REMARK   12  A    between atoms: _24  and  _25
REMARK   13  A    between atoms: _25  and  _26
REMARK   14  A    between atoms: _29  and  _31
REMARK   15  A    between atoms: _31  and  _32
REMARK   16  A    between atoms: _31  and  _34
REMARK   17  A    between atoms: _34  and  _35
REMARK   18  A    between atoms: _38  and  _40
REMARK   19  A    between atoms: _40  and  _41
REMARK   20  A    between atoms: _40  and  _43
REMARK   21  A    between atoms: _43  and  _44
REMARK   22  A    between atoms: _47  and  _49
REMARK   23  A    between atoms: _49  and  _50
REMARK   24  A    between atoms: _49  and  _52
REMARK   25  A    between atoms: _52  and  _53
REMARK   26  A    between atoms: _55  and  _57
REMARK   27  A    between atoms: _57  and  _58
REMARK   28  A    between atoms: _57  and  _60
REMARK   29  A    between atoms: _60  and  _61
REMARK   30  A    between atoms: _66  and  _68
REMARK   31  A    between atoms: _68  and  _69
REMARK   32  A    between atoms: _68  and  _71
REMARK   33  A    between atoms: _71  and  _72
REMARK   34  A    between atoms: _74  and  _76
REMARK   35  A    between atoms: _76  and  _77
REMARK   36  A    between atoms: _76  and  _79
REMARK   37  A    between atoms: _79  and  _80
REMARK   38  A    between atoms: _82  and  _84
REMARK   39  A    between atoms: _84  and  _85
REMARK   40  A    between atoms: _84  and  _87
REMARK   41  A    between atoms: _87  and  _88
REMARK   42  A    between atoms: _91  and  _93
REMARK   43  A    between atoms: _93  and  _94
REMARK   44  A    between atoms: _97  and  _99
REMARK   45  A    between atoms: _99  and  _100
REMARK   46  A    between atoms: _99  and  _102
REMARK   47  A    between atoms: _102  and  _103
REMARK   48  A    between atoms: _106  and  _108
REMARK   49  A    between atoms: _108  and  _109
REMARK   50  A    between atoms: _108  and  _111
REMARK   51  A    between atoms: _111  and  _112
REMARK   52  A    between atoms: _115  and  _117
REMARK   53  A    between atoms: _117  and  _118
REMARK   54  A    between atoms: _117  and  _120
REMARK   55  A    between atoms: _120  and  _121
REMARK   56  A    between atoms: _121  and  _122
REMARK   57  A    between atoms: _122  and  _123
REMARK   58  A    between atoms: _123  and  _124
REMARK   59  A    between atoms: _128  and  _130
REMARK   60  A    between atoms: _130  and  _131
REMARK   61  A    between atoms: _130  and  _133
REMARK   62  A    between atoms: _133  and  _134
REMARK   63  A    between atoms: _137  and  _139
REMARK   64  A    between atoms: _139  and  _140
REMARK   65  A    between atoms: _139  and  _142
REMARK   66  A    between atoms: _142  and  _143
REMARK   67  A    between atoms: _143  and  _144
REMARK   68  A    between atoms: _147  and  _149
REMARK   69  A    between atoms: _149  and  _150
REMARK   70  A    between atoms: _149  and  _152
REMARK   71  A    between atoms: _152  and  _153
REMARK   72  A    between atoms: _156  and  _158
REMARK   73  A    between atoms: _158  and  _159
REMARK   74  A    between atoms: _158  and  _161
REMARK   75  A    between atoms: _161  and  _162
REMARK   76  A    between atoms: _165  and  _167
REMARK   77  A    between atoms: _167  and  _168
REMARK   78  A    between atoms: _167  and  _170
REMARK   79  A    between atoms: _173  and  _175
REMARK   80  A    between atoms: _175  and  _176
REMARK   81  A    between atoms: _175  and  _178
REMARK   82  A    between atoms: _178  and  _179
REMARK   83  A    between atoms: _182  and  _184
REMARK   84  A    between atoms: _184  and  _185
REMARK   85  A    between atoms: _184  and  _187
REMARK   86  A    between atoms: _187  and  _188
REMARK   87  A    between atoms: _191  and  _193
REMARK   88  A    between atoms: _193  and  _194
REMARK   89  A    between atoms: _196  and  _198
REMARK   90  A    between atoms: _198  and  _199
REMARK   91  A    between atoms: _198  and  _201
REMARK   92  A    between atoms: _201  and  _202
REMARK   93  A    between atoms: _205  and  _207
REMARK   94  A    between atoms: _207  and  _208
REMARK   95  A    between atoms: _210  and  _212
REMARK   96  A    between atoms: _212  and  _213
REMARK   97  A    between atoms: _212  and  _215
REMARK   98  A    between atoms: _215  and  _216
REMARK   99  A    between atoms: _216  and  _217
REMARK  100  A    between atoms: _219  and  _221
REMARK  101  A    between atoms: _221  and  _222
REMARK  102  A    between atoms: _221  and  _224
REMARK  103  A    between atoms: _224  and  _225
REMARK  104  A    between atoms: _228  and  _230
REMARK  105  A    between atoms: _230  and  _231
REMARK  106  A    between atoms: _234  and  _236
REMARK  107  A    between atoms: _236  and  _237
REMARK  108  A    between atoms: _236  and  _239
REMARK  109  A    between atoms: _239  and  _240
REMARK  110  A    between atoms: _243  and  _245
REMARK  111  A    between atoms: _245  and  _246
REMARK  112  A    between atoms: _245  and  _248
REMARK  113  A    between atoms: _248  and  _249
REMARK  114  A    between atoms: _252  and  _254
REMARK  115  A    between atoms: _254  and  _255
REMARK  116  A    between atoms: _254  and  _257
REMARK  117  A    between atoms: _257  and  _258
REMARK  118  A    between atoms: _263  and  _265
REMARK  119  A    between atoms: _265  and  _266
REMARK  120  A    between atoms: _265  and  _268
REMARK  121  A    between atoms: _268  and  _269
REMARK  122  A    between atoms: _274  and  _276
REMARK  123  A    between atoms: _276  and  _277
REMARK  124  A    between atoms: _276  and  _279
REMARK  125  A    between atoms: _279  and  _280
REMARK  126  A    between atoms: _283  and  _285
REMARK  127  A    between atoms: _285  and  _286
REMARK  128  A    between atoms: _288  and  _290
REMARK  129  A    between atoms: _290  and  _291
REMARK  130  A    between atoms: _290  and  _293
REMARK  131  A    between atoms: _293  and  _294
REMARK  132  A    between atoms: _297  and  _299
REMARK  133  A    between atoms: _299  and  _300
REMARK  134  A    between atoms: _299  and  _302
REMARK  135  A    between atoms: _302  and  _303
REMARK  136  A    between atoms: _303  and  _304
REMARK  137  A    between atoms: _304  and  _305
REMARK  138  A    between atoms: _305  and  _306
REMARK  139  A    between atoms: _310  and  _312
REMARK  140  A    between atoms: _312  and  _313
REMARK  141  A    between atoms: _312  and  _315
REMARK  142  A    between atoms: _315  and  _316
REMARK  143  A    between atoms: _319  and  _321
REMARK  144  A    between atoms: _321  and  _322
REMARK  145  A    between atoms: _324  and  _326
REMARK  146  A    between atoms: _326  and  _327
REMARK  147  A    between atoms: _326  and  _329
REMARK  148  A    between atoms: _329  and  _330
REMARK  149  A    between atoms: _336  and  _338
REMARK  150  A    between atoms: _338  and  _339
REMARK  151  A    between atoms: _341  and  _343
REMARK  152  A    between atoms: _343  and  _344
REMARK  153  A    between atoms: _343  and  _346
REMARK  154  A    between atoms: _349  and  _351
REMARK  155  A    between atoms: _351  and  _352
REMARK  156  A    between atoms: _354  and  _356
REMARK  157  A    between atoms: _356  and  _357
REMARK  158  A    between atoms: _356  and  _359
REMARK  159  A    between atoms: _359  and  _360
REMARK  160  A    between atoms: _366  and  _368
REMARK  161  A    between atoms: _368  and  _369
REMARK  162  A    between atoms: _368  and  _371
REMARK  163  A    between atoms: _371  and  _372
REMARK  164  A    between atoms: _377  and  _378
REMARK  165  A    between atoms: _380  and  _382
REMARK  166  A    between atoms: _382  and  _383
REMARK  167  A    between atoms: _382  and  _385
REMARK  168  A    between atoms: _385  and  _386
REMARK  169  A    between atoms: _388  and  _390
REMARK  170  A    between atoms: _390  and  _391
REMARK  171  A    between atoms: _394  and  _396
REMARK  172  A    between atoms: _396  and  _397
REMARK  173  A    between atoms: _396  and  _399
REMARK  174  A    between atoms: _402  and  _404
REMARK  175  A    between atoms: _404  and  _405
REMARK  176  A    between atoms: _404  and  _407
REMARK  177  A    between atoms: _407  and  _408
REMARK  178  A    between atoms: _411  and  _413
REMARK  179  A    between atoms: _413  and  _414
REMARK  180  A    between atoms: _413  and  _416
REMARK  181  A    between atoms: _419  and  _421
REMARK  182  A    between atoms: _421  and  _422
REMARK  183  A    between atoms: _421  and  _424
REMARK  184  A    between atoms: _424  and  _425
REMARK  185  A    between atoms: _428  and  _430
REMARK  186  A    between atoms: _430  and  _431
REMARK  187  A    between atoms: _430  and  _433
REMARK  188  A    between atoms: _433  and  _434
REMARK  189  A    between atoms: _437  and  _439
REMARK  190  A    between atoms: _439  and  _440
REMARK  191  A    between atoms: _439  and  _442
REMARK  192  A    between atoms: _442  and  _443
REMARK  193  A    between atoms: _443  and  _444
REMARK  194  A    between atoms: _444  and  _445
REMARK  195  A    between atoms: _445  and  _446
REMARK  196  A    between atoms: _450  and  _452
REMARK  197  A    between atoms: _452  and  _453
REMARK  198  A    between atoms: _452  and  _455
REMARK  199  A    between atoms: _455  and  _456
REMARK  200  A    between atoms: _461  and  _463
REMARK  201  A    between atoms: _463  and  _464
REMARK  202  A    between atoms: _463  and  _466
REMARK  203  A    between atoms: _466  and  _467
REMARK  204  A    between atoms: _477  and  _479
REMARK  205  A    between atoms: _479  and  _480
REMARK  206  A    between atoms: _482  and  _484
REMARK  207  A    between atoms: _484  and  _485
REMARK  208  A    between atoms: _484  and  _487
REMARK  209  A    between atoms: _487  and  _488
REMARK  210  A    between atoms: _491  and  _493
REMARK  211  A    between atoms: _493  and  _494
REMARK  212  A    between atoms: _493  and  _496
REMARK  213  A    between atoms: _496  and  _497
REMARK  214  A    between atoms: _497  and  _498
REMARK  215  A    between atoms: _498  and  _499
REMARK  216  A    between atoms: _499  and  _500
REMARK  217  A    between atoms: _504  and  _506
REMARK  218  A    between atoms: _506  and  _507
REMARK  219  A    between atoms: _506  and  _509
REMARK                            x       y       z     vdW  Elec       q    Type
REMARK                         _______ _______ _______ _____ _____    ______ ____
ROOT
ATOM      1  O   HOH     1      44.692 -55.478  64.456  0.00  0.00    +0.000 OA
ENDROOT
TORSDOF 0
REMARK  Name = ../refined-set-2016/1yet/1yet_pocket.pdb
REMARK  219 active torsions:
REMARK  status: ('A' for Active; 'I' for Inactive)
REMARK    1  A    between atoms: _1  and  _3
REMARK    2  A    between atoms: _3  and  _4
REMARK    3  A    between atoms: _3  and  _6
REMARK    4  A    between atoms: _6  and  _7
REMARK    5  A    between atoms: _10  and  _12
REMARK    6  A    between atoms: _12  and  _13
REMARK    7  A    between atoms: _12  and  _15
REMARK    8  A    between atoms: _15  and  _16
REMARK    9  A    between atoms: _19  and  _21
REMARK   10  A    between atoms: _21  and  _22
REMARK   11  A    between atoms: _21  and  _24
REMARK   12  A    between atoms: _24  and  _25
REMARK   13  A    between atoms: _25  and  _26
REMARK   14  A    between atoms: _29  and  _31
REMARK   15  A    between atoms: _31  and  _32
REMARK   16  A    between atoms: _31  and  _34
REMARK   17  A    between atoms: _34  and  _35
REMARK   18  A    between atoms: _38  and  _40
REMARK   19  A    between atoms: _40  and  _41
REMARK   20  A    between atoms: _40  and  _43
REMARK   21  A    between atoms: _43  and  _44
REMARK   22  A    between atoms: _47  and  _49
REMARK   23  A    between atoms: _49  and  _50
REMARK   24  A    between atoms: _49  and  _52
REMARK   25  A    between atoms: _52  and  _53
REMARK   26  A    between atoms: _55  and  _57
REMARK   27  A    between atoms: _57  and  _58
REMARK   28  A    between atoms: _57  and  _60
REMARK   29  A    between atoms: _60  and  _61
REMARK   30  A    between atoms: _66  and  _68
REMARK   31  A    between atoms: _68  and  _69
REMARK   32  A    between atoms: _68  and  _71
REMARK   33  A    between atoms: _71  and  _72
REMARK   34  A    between atoms: _74  and  _76
REMARK   35  A    between atoms: _76  and  _77
REMARK   36  A    between atoms: _76  and  _79
REMARK   37  A    between atoms: _79  and  _80
REMARK   38  A    between atoms: _82  and  _84
REMARK   39  A    between atoms: _84  and  _85
REMARK   40  A    between atoms: _84  and  _87
REMARK   41  A    between atoms: _87  and  _88
REMARK   42  A    between atoms: _91  and  _93
REMARK   43  A    between atoms: _93  and  _94
REMARK   44  A    between atoms: _97  and  _99
REMARK   45  A    between atoms: _99  and  _100
REMARK   46  A    between atoms: _99  and  _102
REMARK   47  A    between atoms: _102  and  _103
REMARK   48  A    between atoms: _106  and  _108
REMARK   49  A    between atoms: _108  and  _109
REMARK   50  A    between atoms: _108  and  _111
REMARK   51  A    between atoms: _111  and  _112
REMARK   52  A    between atoms: _115  and  _117
REMARK   53  A    between atoms: _117  and  _118
REMARK   54  A    between atoms: _117  and  _120
REMARK   55  A    between atoms: _120  and  _121
REMARK   56  A    between atoms: _121  and  _122
REMARK   57  A    between atoms: _122  and  _123
REMARK   58  A    between atoms: _123  and  _124
REMARK   59  A    between atoms: _128  and  _130
REMARK   60  A    between atoms: _130  and  _131
REMARK   61  A    between atoms: _130  and  _133
REMARK   62  A    between atoms: _133  and  _134
REMARK   63  A    between atoms: _137  and  _139
REMARK   64  A    between atoms: _139  and  _140
REMARK   65  A    between atoms: _139  and  _142
REMARK   66  A    between atoms: _142  and  _143
REMARK   67  A    between atoms: _143  and  _144
REMARK   68  A    between atoms: _147  and  _149
REMARK   69  A    between atoms: _149  and  _150
REMARK   70  A    between atoms: _149  and  _152
REMARK   71  A    between atoms: _152  and  _153
REMARK   72  A    between atoms: _156  and  _158
REMARK   73  A    between atoms: _158  and  _159
REMARK   74  A    between atoms: _158  and  _161
REMARK   75  A    between atoms: _161  and  _162
REMARK   76  A    between atoms: _165  and  _167
REMARK   77  A    between atoms: _167  and  _168
REMARK   78  A    between atoms: _167  and  _170
REMARK   79  A    between atoms: _173  and  _175
REMARK   80  A    between atoms: _175  and  _176
REMARK   81  A    between atoms: _175  and  _178
REMARK   82  A    between atoms: _178  and  _179
REMARK   83  A    between atoms: _182  and  _184
REMARK   84  A    between atoms: _184  and  _185
REMARK   85  A    between atoms: _184  and  _187
REMARK   86  A    between atoms: _187  and  _188
REMARK   87  A    between atoms: _191  and  _193
REMARK   88  A    between atoms: _193  and  _194
REMARK   89  A    between atoms: _196  and  _198
REMARK   90  A    between atoms: _198  and  _199
REMARK   91  A    between atoms: _198  and  _201
REMARK   92  A    between atoms: _201  and  _202
REMARK   93  A    between atoms: _205  and  _207
REMARK   94  A    between atoms: _207  and  _208
REMARK   95  A    between atoms: _210  and  _212
REMARK   96  A    between atoms: _212  and  _213
REMARK   97  A    between atoms: _212  and  _215
REMARK   98  A    between atoms: _215  and  _216
REMARK   99  A    between atoms: _216  and  _217
REMARK  100  A    between atoms: _219  and  _221
REMARK  101  A    between atoms: _221  and  _222
REMARK  102  A    between atoms: _221  and  _224
REMARK  103  A    between atoms: _224  and  _225
REMARK  104  A    between atoms: _228  and  _230
REMARK  105  A    between atoms: _230  and  _231
REMARK  106  A    between atoms: _234  and  _236
REMARK  107  A    between atoms: _236  and  _237
REMARK  108  A    between atoms: _236  and  _239
REMARK  109  A    between atoms: _239  and  _240
REMARK  110  A    between atoms: _243  and  _245
REMARK  111  A    between atoms: _245  and  _246
REMARK  112  A    between atoms: _245  and  _248
REMARK  113  A    between atoms: _248  and  _249
REMARK  114  A    between atoms: _252  and  _254
REMARK  115  A    between atoms: _254  and  _255
REMARK  116  A    between atoms: _254  and  _257
REMARK  117  A    between atoms: _257  and  _258
REMARK  118  A    between atoms: _263  and  _265
REMARK  119  A    between atoms: _265  and  _266
REMARK  120  A    between atoms: _265  and  _268
REMARK  121  A    between atoms: _268  and  _269
REMARK  122  A    between atoms: _274  and  _276
REMARK  123  A    between atoms: _276  and  _277
REMARK  124  A    between atoms: _276  and  _279
REMARK  125  A    between atoms: _279  and  _280
REMARK  126  A    between atoms: _283  and  _285
REMARK  127  A    between atoms: _285  and  _286
REMARK  128  A    between atoms: _288  and  _290
REMARK  129  A    between atoms: _290  and  _291
REMARK  130  A    between atoms: _290  and  _293
REMARK  131  A    between atoms: _293  and  _294
REMARK  132  A    between atoms: _297  and  _299
REMARK  133  A    between atoms: _299  and  _300
REMARK  134  A    between atoms: _299  and  _302
REMARK  135  A    between atoms: _302  and  _303
REMARK  136  A    between atoms: _303  and  _304
REMARK  137  A    between atoms: _304  and  _305
REMARK  138  A    between atoms: _305  and  _306
REMARK  139  A    between atoms: _310  and  _312
REMARK  140  A    between atoms: _312  and  _313
REMARK  141  A    between atoms: _312  and  _315
REMARK  142  A    between atoms: _315  and  _316
REMARK  143  A    between atoms: _319  and  _321
REMARK  144  A    between atoms: _321  and  _322
REMARK  145  A    between atoms: _324  and  _326
REMARK  146  A    between atoms: _326  and  _327
REMARK  147  A    between atoms: _326  and  _329
REMARK  148  A    between atoms: _329  and  _330
REMARK  149  A    between atoms: _336  and  _338
REMARK  150  A    between atoms: _338  and  _339
REMARK  151  A    between atoms: _341  and  _343
REMARK  152  A    between atoms: _343  and  _344
REMARK  153  A    between atoms: _343  and  _346
REMARK  154  A    between atoms: _349  and  _351
REMARK  155  A    between atoms: _351  and  _352
REMARK  156  A    between atoms: _354  and  _356
REMARK  157  A    between atoms: _356  and  _357
REMARK  158  A    between atoms: _356  and  _359
REMARK  159  A    between atoms: _359  and  _360
REMARK  160  A    between atoms: _366  and  _368
REMARK  161  A    between atoms: _368  and  _369
REMARK  162  A    between atoms: _368  and  _371
REMARK  163  A    between atoms: _371  and  _372
REMARK  164  A    between atoms: _377  and  _378
REMARK  165  A    between atoms: _380  and  _382
REMARK  166  A    between atoms: _382  and  _383
REMARK  167  A    between atoms: _382  and  _385
REMARK  168  A    between atoms: _385  and  _386
REMARK  169  A    between atoms: _388  and  _390
REMARK  170  A    between atoms: _390  and  _391
REMARK  171  A    between atoms: _394  and  _396
REMARK  172  A    between atoms: _396  and  _397
REMARK  173  A    between atoms: _396  and  _399
REMARK  174  A    between atoms: _402  and  _404
REMARK  175  A    between atoms: _404  and  _405
REMARK  176  A    between atoms: _404  and  _407
REMARK  177  A    between atoms: _407  and  _408
REMARK  178  A    between atoms: _411  and  _413
REMARK  179  A    between atoms: _413  and  _414
REMARK  180  A    between atoms: _413  and  _416
REMARK  181  A    between atoms: _419  and  _421
REMARK  182  A    between atoms: _421  and  _422
REMARK  183  A    between atoms: _421  and  _424
REMARK  184  A    between atoms: _424  and  _425
REMARK  185  A    between atoms: _428  and  _430
REMARK  186  A    between atoms: _430  and  _431
REMARK  187  A    between atoms: _430  and  _433
REMARK  188  A    between atoms: _433  and  _434
REMARK  189  A    between atoms: _437  and  _439
REMARK  190  A    between atoms: _439  and  _440
REMARK  191  A    between atoms: _439  and  _442
REMARK  192  A    between atoms: _442  and  _443
REMARK  193  A    between atoms: _443  and  _444
REMARK  194  A    between atoms: _444  and  _445
REMARK  195  A    between atoms: _445  and  _446
REMARK  196  A    between atoms: _450  and  _452
REMARK  197  A    between atoms: _452  and  _453
REMARK  198  A    between atoms: _452  and  _455
REMARK  199  A    between atoms: _455  and  _456
REMARK  200  A    between atoms: _461  and  _463
REMARK  201  A    between atoms: _463  and  _464
REMARK  202  A    between atoms: _463  and  _466
REMARK  203  A    between atoms: _466  and  _467
REMARK  204  A    between atoms: _477  and  _479
REMARK  205  A    between atoms: _479  and  _480
REMARK  206  A    between atoms: _482  and  _484
REMARK  207  A    between atoms: _484  and  _485
REMARK  208  A    between atoms: _484  and  _487
REMARK  209  A    between atoms: _487  and  _488
REMARK  210  A    between atoms: _491  and  _493
REMARK  211  A    between atoms: _493  and  _494
REMARK  212  A    between atoms: _493  and  _496
REMARK  213  A    between atoms: _496  and  _497
REMARK  214  A    between atoms: _497  and  _498
REMARK  215  A    between atoms: _498  and  _499
REMARK  216  A    between atoms: _499  and  _500
REMARK  217  A    between atoms: _504  and  _506
REMARK  218  A    between atoms: _506  and  _507
REMARK  219  A    between atoms: _506  and  _509
REMARK                            x       y       z     vdW  Elec       q    Type
REMARK                         _______ _______ _______ _____ _____    ______ ____
ROOT
ATOM      1  O   HOH     1      42.033 -54.413  65.412  0.00  0.00    +0.000 OA
ENDROOT
TORSDOF 0
REMARK  Name = ../refined-set-2016/1yet/1yet_pocket.pdb
REMARK  219 active torsions:
REMARK  status: ('A' for Active; 'I' for Inactive)
REMARK    1  A    between atoms: _1  and  _3
REMARK    2  A    between atoms: _3  and  _4
REMARK    3  A    between atoms: _3  and  _6
REMARK    4  A    between atoms: _6  and  _7
REMARK    5  A    between atoms: _10  and  _12
REMARK    6  A    between atoms: _12  and  _13
REMARK    7  A    between atoms: _12  and  _15
REMARK    8  A    between atoms: _15  and  _16
REMARK    9  A    between atoms: _19  and  _21
REMARK   10  A    between atoms: _21  and  _22
REMARK   11  A    between atoms: _21  and  _24
REMARK   12  A    between atoms: _24  and  _25
REMARK   13  A    between atoms: _25  and  _26
REMARK   14  A    between atoms: _29  and  _31
REMARK   15  A    between atoms: _31  and  _32
REMARK   16  A    between atoms: _31  and  _34
REMARK   17  A    between atoms: _34  and  _35
REMARK   18  A    between atoms: _38  and  _40
REMARK   19  A    between atoms: _40  and  _41
REMARK   20  A    between atoms: _40  and  _43
REMARK   21  A    between atoms: _43  and  _44
REMARK   22  A    between atoms: _47  and  _49
REMARK   23  A    between atoms: _49  and  _50
REMARK   24  A    between atoms: _49  and  _52
REMARK   25  A    between atoms: _52  and  _53
REMARK   26  A    between atoms: _55  and  _57
REMARK   27  A    between atoms: _57  and  _58
REMARK   28  A    between atoms: _57  and  _60
REMARK   29  A    between atoms: _60  and  _61
REMARK   30  A    between atoms: _66  and  _68
REMARK   31  A    between atoms: _68  and  _69
REMARK   32  A    between atoms: _68  and  _71
REMARK   33  A    between atoms: _71  and  _72
REMARK   34  A    between atoms: _74  and  _76
REMARK   35  A    between atoms: _76  and  _77
REMARK   36  A    between atoms: _76  and  _79
REMARK   37  A    between atoms: _79  and  _80
REMARK   38  A    between atoms: _82  and  _84
REMARK   39  A    between atoms: _84  and  _85
REMARK   40  A    between atoms: _84  and  _87
REMARK   41  A    between atoms: _87  and  _88
REMARK   42  A    between atoms: _91  and  _93
REMARK   43  A    between atoms: _93  and  _94
REMARK   44  A    between atoms: _97  and  _99
REMARK   45  A    between atoms: _99  and  _100
REMARK   46  A    between atoms: _99  and  _102
REMARK   47  A    between atoms: _102  and  _103
REMARK   48  A    between atoms: _106  and  _108
REMARK   49  A    between atoms: _108  and  _109
REMARK   50  A    between atoms: _108  and  _111
REMARK   51  A    between atoms: _111  and  _112
REMARK   52  A    between atoms: _115  and  _117
REMARK   53  A    between atoms: _117  and  _118
REMARK   54  A    between atoms: _117  and  _120
REMARK   55  A    between atoms: _120  and  _121
REMARK   56  A    between atoms: _121  and  _122
REMARK   57  A    between atoms: _122  and  _123
REMARK   58  A    between atoms: _123  and  _124
REMARK   59  A    between atoms: _128  and  _130
REMARK   60  A    between atoms: _130  and  _131
REMARK   61  A    between atoms: _130  and  _133
REMARK   62  A    between atoms: _133  and  _134
REMARK   63  A    between atoms: _137  and  _139
REMARK   64  A    between atoms: _139  and  _140
REMARK   65  A    between atoms: _139  and  _142
REMARK   66  A    between atoms: _142  and  _143
REMARK   67  A    between atoms: _143  and  _144
REMARK   68  A    between atoms: _147  and  _149
REMARK   69  A    between atoms: _149  and  _150
REMARK   70  A    between atoms: _149  and  _152
REMARK   71  A    between atoms: _152  and  _153
REMARK   72  A    between atoms: _156  and  _158
REMARK   73  A    between atoms: _158  and  _159
REMARK   74  A    between atoms: _158  and  _161
REMARK   75  A    between atoms: _161  and  _162
REMARK   76  A    between atoms: _165  and  _167
REMARK   77  A    between atoms: _167  and  _168
REMARK   78  A    between atoms: _167  and  _170
REMARK   79  A    between atoms: _173  and  _175
REMARK   80  A    between atoms: _175  and  _176
REMARK   81  A    between atoms: _175  and  _178
REMARK   82  A    between atoms: _178  and  _179
REMARK   83  A    between atoms: _182  and  _184
REMARK   84  A    between atoms: _184  and  _185
REMARK   85  A    between atoms: _184  and  _187
REMARK   86  A    between atoms: _187  and  _188
REMARK   87  A    between atoms: _191  and  _193
REMARK   88  A    between atoms: _193  and  _194
REMARK   89  A    between atoms: _196  and  _198
REMARK   90  A    between atoms: _198  and  _199
REMARK   91  A    between atoms: _198  and  _201
REMARK   92  A    between atoms: _201  and  _202
REMARK   93  A    between atoms: _205  and  _207
REMARK   94  A    between atoms: _207  and  _208
REMARK   95  A    between atoms: _210  and  _212
REMARK   96  A    between atoms: _212  and  _213
REMARK   97  A    between atoms: _212  and  _215
REMARK   98  A    between atoms: _215  and  _216
REMARK   99  A    between atoms: _216  and  _217
REMARK  100  A    between atoms: _219  and  _221
REMARK  101  A    between atoms: _221  and  _222
REMARK  102  A    between atoms: _221  and  _224
REMARK  103  A    between atoms: _224  and  _225
REMARK  104  A    between atoms: _228  and  _230
REMARK  105  A    between atoms: _230  and  _231
REMARK  106  A    between atoms: _234  and  _236
REMARK  107  A    between atoms: _236  and  _237
REMARK  108  A    between atoms: _236  and  _239
REMARK  109  A    between atoms: _239  and  _240
REMARK  110  A    between atoms: _243  and  _245
REMARK  111  A    between atoms: _245  and  _246
REMARK  112  A    between atoms: _245  and  _248
REMARK  113  A    between atoms: _248  and  _249
REMARK  114  A    between atoms: _252  and  _254
REMARK  115  A    between atoms: _254  and  _255
REMARK  116  A    between atoms: _254  and  _257
REMARK  117  A    between atoms: _257  and  _258
REMARK  118  A    between atoms: _263  and  _265
REMARK  119  A    between atoms: _265  and  _266
REMARK  120  A    between atoms: _265  and  _268
REMARK  121  A    between atoms: _268  and  _269
REMARK  122  A    between atoms: _274  and  _276
REMARK  123  A    between atoms: _276  and  _277
REMARK  124  A    between atoms: _276  and  _279
REMARK  125  A    between atoms: _279  and  _280
REMARK  126  A    between atoms: _283  and  _285
REMARK  127  A    between atoms: _285  and  _286
REMARK  128  A    between atoms: _288  and  _290
REMARK  129  A    between atoms: _290  and  _291
REMARK  130  A    between atoms: _290  and  _293
REMARK  131  A    between atoms: _293  and  _294
REMARK  132  A    between atoms: _297  and  _299
REMARK  133  A    between atoms: _299  and  _300
REMARK  134  A    between atoms: _299  and  _302
REMARK  135  A    between atoms: _302  and  _303
REMARK  136  A    between atoms: _303  and  _304
REMARK  137  A    between atoms: _304  and  _305
REMARK  138  A    between atoms: _305  and  _306
REMARK  139  A    between atoms: _310  and  _312
REMARK  140  A    between atoms: _312  and  _313
REMARK  141  A    between atoms: _312  and  _315
REMARK  142  A    between atoms: _315  and  _316
REMARK  143  A    between atoms: _319  and  _321
REMARK  144  A    between atoms: _321  and  _322
REMARK  145  A    between atoms: _324  and  _326
REMARK  146  A    between atoms: _326  and  _327
REMARK  147  A    between atoms: _326  and  _329
REMARK  148  A    between atoms: _329  and  _330
REMARK  149  A    between atoms: _336  and  _338
REMARK  150  A    between atoms: _338  and  _339
REMARK  151  A    between atoms: _341  and  _343
REMARK  152  A    between atoms: _343  and  _344
REMARK  153  A    between atoms: _343  and  _346
REMARK  154  A    between atoms: _349  and  _351
REMARK  155  A    between atoms: _351  and  _352
REMARK  156  A    between atoms: _354  and  _356
REMARK  157  A    between atoms: _356  and  _357
REMARK  158  A    between atoms: _356  and  _359
REMARK  159  A    between atoms: _359  and  _360
REMARK  160  A    between atoms: _366  and  _368
REMARK  161  A    between atoms: _368  and  _369
REMARK  162  A    between atoms: _368  and  _371
REMARK  163  A    between atoms: _371  and  _372
REMARK  164  A    between atoms: _377  and  _378
REMARK  165  A    between atoms: _380  and  _382
REMARK  166  A    between atoms: _382  and  _383
REMARK  167  A    between atoms: _382  and  _385
REMARK  168  A    between atoms: _385  and  _386
REMARK  169  A    between atoms: _388  and  _390
REMARK  170  A    between atoms: _390  and  _391
REMARK  171  A    between atoms: _394  and  _396
REMARK  172  A    between atoms: _396  and  _397
REMARK  173  A    between atoms: _396  and  _399
REMARK  174  A    between atoms: _402  and  _404
REMARK  175  A    between atoms: _404  and  _405
REMARK  176  A    between atoms: _404  and  _407
REMARK  177  A    between atoms: _407  and  _408
REMARK  178  A    between atoms: _411  and  _413
REMARK  179  A    between atoms: _413  and  _414
REMARK  180  A    between atoms: _413  and  _416
REMARK  181  A    between atoms: _419  and  _421
REMARK  182  A    between atoms: _421  and  _422
REMARK  183  A    between atoms: _421  and  _424
REMARK  184  A    between atoms: _424  and  _425
REMARK  185  A    between atoms: _428  and  _430
REMARK  186  A    between atoms: _430  and  _431
REMARK  187  A    between atoms: _430  and  _433
REMARK  188  A    between atoms: _433  and  _434
REMARK  189  A    between atoms: _437  and  _439
REMARK  190  A    between atoms: _439  and  _440
REMARK  191  A    between atoms: _439  and  _442
REMARK  192  A    between atoms: _442  and  _443
REMARK  193  A    between atoms: _443  and  _444
REMARK  194  A    between atoms: _444  and  _445
REMARK  195  A    between atoms: _445  and  _446
REMARK  196  A    between atoms: _450  and  _452
REMARK  197  A    between atoms: _452  and  _453
REMARK  198  A    between atoms: _452  and  _455
REMARK  199  A    between atoms: _455  and  _456
REMARK  200  A    between atoms: _461  and  _463
REMARK  201  A    between atoms: _463  and  _464
REMARK  202  A    between atoms: _463  and  _466
REMARK  203  A    between atoms: _466  and  _467
REMARK  204  A    between atoms: _477  and  _479
REMARK  205  A    between atoms: _479  and  _480
REMARK  206  A    between atoms: _482  and  _484
REMARK  207  A    between atoms: _484  and  _485
REMARK  208  A    between atoms: _484  and  _487
REMARK  209  A    between atoms: _487  and  _488
REMARK  210  A    between atoms: _491  and  _493
REMARK  211  A    between atoms: _493  and  _494
REMARK  212  A    between atoms: _493  and  _496
REMARK  213  A    between atoms: _496  and  _497
REMARK  214  A    between atoms: _497  and  _498
REMARK  215  A    between atoms: _498  and  _499
REMARK  216  A    between atoms: _499  and  _500
REMARK  217  A    between atoms: _504  and  _506
REMARK  218  A    between atoms: _506  and  _507
REMARK  219  A    between atoms: _506  and  _509
REMARK                            x       y       z     vdW  Elec       q    Type
REMARK                         _______ _______ _______ _____ _____    ______ ____
ROOT
ATOM      1  O   HOH     1      48.408 -39.947  60.076  0.00  0.00    +0.000 OA
ENDROOT
TORSDOF 0
REMARK  Name = ../refined-set-2016/1yet/1yet_pocket.pdb
REMARK  219 active torsions:
REMARK  status: ('A' for Active; 'I' for Inactive)
REMARK    1  A    between atoms: _1  and  _3
REMARK    2  A    between atoms: _3  and  _4
REMARK    3  A    between atoms: _3  and  _6
REMARK    4  A    between atoms: _6  and  _7
REMARK    5  A    between atoms: _10  and  _12
REMARK    6  A    between atoms: _12  and  _13
REMARK    7  A    between atoms: _12  and  _15
REMARK    8  A    between atoms: _15  and  _16
REMARK    9  A    between atoms: _19  and  _21
REMARK   10  A    between atoms: _21  and  _22
REMARK   11  A    between atoms: _21  and  _24
REMARK   12  A    between atoms: _24  and  _25
REMARK   13  A    between atoms: _25  and  _26
REMARK   14  A    between atoms: _29  and  _31
REMARK   15  A    between atoms: _31  and  _32
REMARK   16  A    between atoms: _31  and  _34
REMARK   17  A    between atoms: _34  and  _35
REMARK   18  A    between atoms: _38  and  _40
REMARK   19  A    between atoms: _40  and  _41
REMARK   20  A    between atoms: _40  and  _43
REMARK   21  A    between atoms: _43  and  _44
REMARK   22  A    between atoms: _47  and  _49
REMARK   23  A    between atoms: _49  and  _50
REMARK   24  A    between atoms: _49  and  _52
REMARK   25  A    between atoms: _52  and  _53
REMARK   26  A    between atoms: _55  and  _57
REMARK   27  A    between atoms: _57  and  _58
REMARK   28  A    between atoms: _57  and  _60
REMARK   29  A    between atoms: _60  and  _61
REMARK   30  A    between atoms: _66  and  _68
REMARK   31  A    between atoms: _68  and  _69
REMARK   32  A    between atoms: _68  and  _71
REMARK   33  A    between atoms: _71  and  _72
REMARK   34  A    between atoms: _74  and  _76
REMARK   35  A    between atoms: _76  and  _77
REMARK   36  A    between atoms: _76  and  _79
REMARK   37  A    between atoms: _79  and  _80
REMARK   38  A    between atoms: _82  and  _84
REMARK   39  A    between atoms: _84  and  _85
REMARK   40  A    between atoms: _84  and  _87
REMARK   41  A    between atoms: _87  and  _88
REMARK   42  A    between atoms: _91  and  _93
REMARK   43  A    between atoms: _93  and  _94
REMARK   44  A    between atoms: _97  and  _99
REMARK   45  A    between atoms: _99  and  _100
REMARK   46  A    between atoms: _99  and  _102
REMARK   47  A    between atoms: _102  and  _103
REMARK   48  A    between atoms: _106  and  _108
REMARK   49  A    between atoms: _108  and  _109
REMARK   50  A    between atoms: _108  and  _111
REMARK   51  A    between atoms: _111  and  _112
REMARK   52  A    between atoms: _115  and  _117
REMARK   53  A    between atoms: _117  and  _118
REMARK   54  A    between atoms: _117  and  _120
REMARK   55  A    between atoms: _120  and  _121
REMARK   56  A    between atoms: _121  and  _122
REMARK   57  A    between atoms: _122  and  _123
REMARK   58  A    between atoms: _123  and  _124
REMARK   59  A    between atoms: _128  and  _130
REMARK   60  A    between atoms: _130  and  _131
REMARK   61  A    between atoms: _130  and  _133
REMARK   62  A    between atoms: _133  and  _134
REMARK   63  A    between atoms: _137  and  _139
REMARK   64  A    between atoms: _139  and  _140
REMARK   65  A    between atoms: _139  and  _142
REMARK   66  A    between atoms: _142  and  _143
REMARK   67  A    between atoms: _143  and  _144
REMARK   68  A    between atoms: _147  and  _149
REMARK   69  A    between atoms: _149  and  _150
REMARK   70  A    between atoms: _149  and  _152
REMARK   71  A    between atoms: _152  and  _153
REMARK   72  A    between atoms: _156  and  _158
REMARK   73  A    between atoms: _158  and  _159
REMARK   74  A    between atoms: _158  and  _161
REMARK   75  A    between atoms: _161  and  _162
REMARK   76  A    between atoms: _165  and  _167
REMARK   77  A    between atoms: _167  and  _168
REMARK   78  A    between atoms: _167  and  _170
REMARK   79  A    between atoms: _173  and  _175
REMARK   80  A    between atoms: _175  and  _176
REMARK   81  A    between atoms: _175  and  _178
REMARK   82  A    between atoms: _178  and  _179
REMARK   83  A    between atoms: _182  and  _184
REMARK   84  A    between atoms: _184  and  _185
REMARK   85  A    between atoms: _184  and  _187
REMARK   86  A    between atoms: _187  and  _188
REMARK   87  A    between atoms: _191  and  _193
REMARK   88  A    between atoms: _193  and  _194
REMARK   89  A    between atoms: _196  and  _198
REMARK   90  A    between atoms: _198  and  _199
REMARK   91  A    between atoms: _198  and  _201
REMARK   92  A    between atoms: _201  and  _202
REMARK   93  A    between atoms: _205  and  _207
REMARK   94  A    between atoms: _207  and  _208
REMARK   95  A    between atoms: _210  and  _212
REMARK   96  A    between atoms: _212  and  _213
REMARK   97  A    between atoms: _212  and  _215
REMARK   98  A    between atoms: _215  and  _216
REMARK   99  A    between atoms: _216  and  _217
REMARK  100  A    between atoms: _219  and  _221
REMARK  101  A    between atoms: _221  and  _222
REMARK  102  A    between atoms: _221  and  _224
REMARK  103  A    between atoms: _224  and  _225
REMARK  104  A    between atoms: _228  and  _230
REMARK  105  A    between atoms: _230  and  _231
REMARK  106  A    between atoms: _234  and  _236
REMARK  107  A    between atoms: _236  and  _237
REMARK  108  A    between atoms: _236  and  _239
REMARK  109  A    between atoms: _239  and  _240
REMARK  110  A    between atoms: _243  and  _245
REMARK  111  A    between atoms: _245  and  _246
REMARK  112  A    between atoms: _245  and  _248
REMARK  113  A    between atoms: _248  and  _249
REMARK  114  A    between atoms: _252  and  _254
REMARK  115  A    between atoms: _254  and  _255
REMARK  116  A    between atoms: _254  and  _257
REMARK  117  A    between atoms: _257  and  _258
REMARK  118  A    between atoms: _263  and  _265
REMARK  119  A    between atoms: _265  and  _266
REMARK  120  A    between atoms: _265  and  _268
REMARK  121  A    between atoms: _268  and  _269
REMARK  122  A    between atoms: _274  and  _276
REMARK  123  A    between atoms: _276  and  _277
REMARK  124  A    between atoms: _276  and  _279
REMARK  125  A    between atoms: _279  and  _280
REMARK  126  A    between atoms: _283  and  _285
REMARK  127  A    between atoms: _285  and  _286
REMARK  128  A    between atoms: _288  and  _290
REMARK  129  A    between atoms: _290  and  _291
REMARK  130  A    between atoms: _290  and  _293
REMARK  131  A    between atoms: _293  and  _294
REMARK  132  A    between atoms: _297  and  _299
REMARK  133  A    between atoms: _299  and  _300
REMARK  134  A    between atoms: _299  and  _302
REMARK  135  A    between atoms: _302  and  _303
REMARK  136  A    between atoms: _303  and  _304
REMARK  137  A    between atoms: _304  and  _305
REMARK  138  A    between atoms: _305  and  _306
REMARK  139  A    between atoms: _310  and  _312
REMARK  140  A    between atoms: _312  and  _313
REMARK  141  A    between atoms: _312  and  _315
REMARK  142  A    between atoms: _315  and  _316
REMARK  143  A    between atoms: _319  and  _321
REMARK  144  A    between atoms: _321  and  _322
REMARK  145  A    between atoms: _324  and  _326
REMARK  146  A    between atoms: _326  and  _327
REMARK  147  A    between atoms: _326  and  _329
REMARK  148  A    between atoms: _329  and  _330
REMARK  149  A    between atoms: _336  and  _338
REMARK  150  A    between atoms: _338  and  _339
REMARK  151  A    between atoms: _341  and  _343
REMARK  152  A    between atoms: _343  and  _344
REMARK  153  A    between atoms: _343  and  _346
REMARK  154  A    between atoms: _349  and  _351
REMARK  155  A    between atoms: _351  and  _352
REMARK  156  A    between atoms: _354  and  _356
REMARK  157  A    between atoms: _356  and  _357
REMARK  158  A    between atoms: _356  and  _359
REMARK  159  A    between atoms: _359  and  _360
REMARK  160  A    between atoms: _366  and  _368
REMARK  161  A    between atoms: _368  and  _369
REMARK  162  A    between atoms: _368  and  _371
REMARK  163  A    between atoms: _371  and  _372
REMARK  164  A    between atoms: _377  and  _378
REMARK  165  A    between atoms: _380  and  _382
REMARK  166  A    between atoms: _382  and  _383
REMARK  167  A    between atoms: _382  and  _385
REMARK  168  A    between atoms: _385  and  _386
REMARK  169  A    between atoms: _388  and  _390
REMARK  170  A    between atoms: _390  and  _391
REMARK  171  A    between atoms: _394  and  _396
REMARK  172  A    between atoms: _396  and  _397
REMARK  173  A    between atoms: _396  and  _399
REMARK  174  A    between atoms: _402  and  _404
REMARK  175  A    between atoms: _404  and  _405
REMARK  176  A    between atoms: _404  and  _407
REMARK  177  A    between atoms: _407  and  _408
REMARK  178  A    between atoms: _411  and  _413
REMARK  179  A    between atoms: _413  and  _414
REMARK  180  A    between atoms: _413  and  _416
REMARK  181  A    between atoms: _419  and  _421
REMARK  182  A    between atoms: _421  and  _422
REMARK  183  A    between atoms: _421  and  _424
REMARK  184  A    between atoms: _424  and  _425
REMARK  185  A    between atoms: _428  and  _430
REMARK  186  A    between atoms: _430  and  _431
REMARK  187  A    between atoms: _430  and  _433
REMARK  188  A    between atoms: _433  and  _434
REMARK  189  A    between atoms: _437  and  _439
REMARK  190  A    between atoms: _439  and  _440
REMARK  191  A    between atoms: _439  and  _442
REMARK  192  A    between atoms: _442  and  _443
REMARK  193  A    between atoms: _443  and  _444
REMARK  194  A    between atoms: _444  and  _445
REMARK  195  A    between atoms: _445  and  _446
REMARK  196  A    between atoms: _450  and  _452
REMARK  197  A    between atoms: _452  and  _453
REMARK  198  A    between atoms: _452  and  _455
REMARK  199  A    between atoms: _455  and  _456
REMARK  200  A    between atoms: _461  and  _463
REMARK  201  A    between atoms: _463  and  _464
REMARK  202  A    between atoms: _463  and  _466
REMARK  203  A    between atoms: _466  and  _467
REMARK  204  A    between atoms: _477  and  _479
REMARK  205  A    between atoms: _479  and  _480
REMARK  206  A    between atoms: _482  and  _484
REMARK  207  A    between atoms: _484  and  _485
REMARK  208  A    between atoms: _484  and  _487
REMARK  209  A    between atoms: _487  and  _488
REMARK  210  A    between atoms: _491  and  _493
REMARK  211  A    between atoms: _493  and  _494
REMARK  212  A    between atoms: _493  and  _496
REMARK  213  A    between atoms: _496  and  _497
REMARK  214  A    between atoms: _497  and  _498
REMARK  215  A    between atoms: _498  and  _499
REMARK  216  A    between atoms: _499  and  _500
REMARK  217  A    between atoms: _504  and  _506
REMARK  218  A    between atoms: _506  and  _507
REMARK  219  A    between atoms: _506  and  _509
REMARK                            x       y       z     vdW  Elec       q    Type
REMARK                         _______ _______ _______ _____ _____    ______ ____
ROOT
ATOM      1  O   HOH     1      44.763 -51.685  66.401  0.00  0.00    +0.000 OA
ENDROOT
TORSDOF 0
REMARK  Name = ../refined-set-2016/1yet/1yet_pocket.pdb
REMARK  219 active torsions:
REMARK  status: ('A' for Active; 'I' for Inactive)
REMARK    1  A    between atoms: _1  and  _3
REMARK    2  A    between atoms: _3  and  _4
REMARK    3  A    between atoms: _3  and  _6
REMARK    4  A    between atoms: _6  and  _7
REMARK    5  A    between atoms: _10  and  _12
REMARK    6  A    between atoms: _12  and  _13
REMARK    7  A    between atoms: _12  and  _15
REMARK    8  A    between atoms: _15  and  _16
REMARK    9  A    between atoms: _19  and  _21
REMARK   10  A    between atoms: _21  and  _22
REMARK   11  A    between atoms: _21  and  _24
REMARK   12  A    between atoms: _24  and  _25
REMARK   13  A    between atoms: _25  and  _26
REMARK   14  A    between atoms: _29  and  _31
REMARK   15  A    between atoms: _31  and  _32
REMARK   16  A    between atoms: _31  and  _34
REMARK   17  A    between atoms: _34  and  _35
REMARK   18  A    between atoms: _38  and  _40
REMARK   19  A    between atoms: _40  and  _41
REMARK   20  A    between atoms: _40  and  _43
REMARK   21  A    between atoms: _43  and  _44
REMARK   22  A    between atoms: _47  and  _49
REMARK   23  A    between atoms: _49  and  _50
REMARK   24  A    between atoms: _49  and  _52
REMARK   25  A    between atoms: _52  and  _53
REMARK   26  A    between atoms: _55  and  _57
REMARK   27  A    between atoms: _57  and  _58
REMARK   28  A    between atoms: _57  and  _60
REMARK   29  A    between atoms: _60  and  _61
REMARK   30  A    between atoms: _66  and  _68
REMARK   31  A    between atoms: _68  and  _69
REMARK   32  A    between atoms: _68  and  _71
REMARK   33  A    between atoms: _71  and  _72
REMARK   34  A    between atoms: _74  and  _76
REMARK   35  A    between atoms: _76  and  _77
REMARK   36  A    between atoms: _76  and  _79
REMARK   37  A    between atoms: _79  and  _80
REMARK   38  A    between atoms: _82  and  _84
REMARK   39  A    between atoms: _84  and  _85
REMARK   40  A    between atoms: _84  and  _87
REMARK   41  A    between atoms: _87  and  _88
REMARK   42  A    between atoms: _91  and  _93
REMARK   43  A    between atoms: _93  and  _94
REMARK   44  A    between atoms: _97  and  _99
REMARK   45  A    between atoms: _99  and  _100
REMARK   46  A    between atoms: _99  and  _102
REMARK   47  A    between atoms: _102  and  _103
REMARK   48  A    between atoms: _106  and  _108
REMARK   49  A    between atoms: _108  and  _109
REMARK   50  A    between atoms: _108  and  _111
REMARK   51  A    between atoms: _111  and  _112
REMARK   52  A    between atoms: _115  and  _117
REMARK   53  A    between atoms: _117  and  _118
REMARK   54  A    between atoms: _117  and  _120
REMARK   55  A    between atoms: _120  and  _121
REMARK   56  A    between atoms: _121  and  _122
REMARK   57  A    between atoms: _122  and  _123
REMARK   58  A    between atoms: _123  and  _124
REMARK   59  A    between atoms: _128  and  _130
REMARK   60  A    between atoms: _130  and  _131
REMARK   61  A    between atoms: _130  and  _133
REMARK   62  A    between atoms: _133  and  _134
REMARK   63  A    between atoms: _137  and  _139
REMARK   64  A    between atoms: _139  and  _140
REMARK   65  A    between atoms: _139  and  _142
REMARK   66  A    between atoms: _142  and  _143
REMARK   67  A    between atoms: _143  and  _144
REMARK   68  A    between atoms: _147  and  _149
REMARK   69  A    between atoms: _149  and  _150
REMARK   70  A    between atoms: _149  and  _152
REMARK   71  A    between atoms: _152  and  _153
REMARK   72  A    between atoms: _156  and  _158
REMARK   73  A    between atoms: _158  and  _159
REMARK   74  A    between atoms: _158  and  _161
REMARK   75  A    between atoms: _161  and  _162
REMARK   76  A    between atoms: _165  and  _167
REMARK   77  A    between atoms: _167  and  _168
REMARK   78  A    between atoms: _167  and  _170
REMARK   79  A    between atoms: _173  and  _175
REMARK   80  A    between atoms: _175  and  _176
REMARK   81  A    between atoms: _175  and  _178
REMARK   82  A    between atoms: _178  and  _179
REMARK   83  A    between atoms: _182  and  _184
REMARK   84  A    between atoms: _184  and  _185
REMARK   85  A    between atoms: _184  and  _187
REMARK   86  A    between atoms: _187  and  _188
REMARK   87  A    between atoms: _191  and  _193
REMARK   88  A    between atoms: _193  and  _194
REMARK   89  A    between atoms: _196  and  _198
REMARK   90  A    between atoms: _198  and  _199
REMARK   91  A    between atoms: _198  and  _201
REMARK   92  A    between atoms: _201  and  _202
REMARK   93  A    between atoms: _205  and  _207
REMARK   94  A    between atoms: _207  and  _208
REMARK   95  A    between atoms: _210  and  _212
REMARK   96  A    between atoms: _212  and  _213
REMARK   97  A    between atoms: _212  and  _215
REMARK   98  A    between atoms: _215  and  _216
REMARK   99  A    between atoms: _216  and  _217
REMARK  100  A    between atoms: _219  and  _221
REMARK  101  A    between atoms: _221  and  _222
REMARK  102  A    between atoms: _221  and  _224
REMARK  103  A    between atoms: _224  and  _225
REMARK  104  A    between atoms: _228  and  _230
REMARK  105  A    between atoms: _230  and  _231
REMARK  106  A    between atoms: _234  and  _236
REMARK  107  A    between atoms: _236  and  _237
REMARK  108  A    between atoms: _236  and  _239
REMARK  109  A    between atoms: _239  and  _240
REMARK  110  A    between atoms: _243  and  _245
REMARK  111  A    between atoms: _245  and  _246
REMARK  112  A    between atoms: _245  and  _248
REMARK  113  A    between atoms: _248  and  _249
REMARK  114  A    between atoms: _252  and  _254
REMARK  115  A    between atoms: _254  and  _255
REMARK  116  A    between atoms: _254  and  _257
REMARK  117  A    between atoms: _257  and  _258
REMARK  118  A    between atoms: _263  and  _265
REMARK  119  A    between atoms: _265  and  _266
REMARK  120  A    between atoms: _265  and  _268
REMARK  121  A    between atoms: _268  and  _269
REMARK  122  A    between atoms: _274  and  _276
REMARK  123  A    between atoms: _276  and  _277
REMARK  124  A    between atoms: _276  and  _279
REMARK  125  A    between atoms: _279  and  _280
REMARK  126  A    between atoms: _283  and  _285
REMARK  127  A    between atoms: _285  and  _286
REMARK  128  A    between atoms: _288  and  _290
REMARK  129  A    between atoms: _290  and  _291
REMARK  130  A    between atoms: _290  and  _293
REMARK  131  A    between atoms: _293  and  _294
REMARK  132  A    between atoms: _297  and  _299
REMARK  133  A    between atoms: _299  and  _300
REMARK  134  A    between atoms: _299  and  _302
REMARK  135  A    between atoms: _302  and  _303
REMARK  136  A    between atoms: _303  and  _304
REMARK  137  A    between atoms: _304  and  _305
REMARK  138  A    between atoms: _305  and  _306
REMARK  139  A    between atoms: _310  and  _312
REMARK  140  A    between atoms: _312  and  _313
REMARK  141  A    between atoms: _312  and  _315
REMARK  142  A    between atoms: _315  and  _316
REMARK  143  A    between atoms: _319  and  _321
REMARK  144  A    between atoms: _321  and  _322
REMARK  145  A    between atoms: _324  and  _326
REMARK  146  A    between atoms: _326  and  _327
REMARK  147  A    between atoms: _326  and  _329
REMARK  148  A    between atoms: _329  and  _330
REMARK  149  A    between atoms: _336  and  _338
REMARK  150  A    between atoms: _338  and  _339
REMARK  151  A    between atoms: _341  and  _343
REMARK  152  A    between atoms: _343  and  _344
REMARK  153  A    between atoms: _343  and  _346
REMARK  154  A    between atoms: _349  and  _351
REMARK  155  A    between atoms: _351  and  _352
REMARK  156  A    between atoms: _354  and  _356
REMARK  157  A    between atoms: _356  and  _357
REMARK  158  A    between atoms: _356  and  _359
REMARK  159  A    between atoms: _359  and  _360
REMARK  160  A    between atoms: _366  and  _368
REMARK  161  A    between atoms: _368  and  _369
REMARK  162  A    between atoms: _368  and  _371
REMARK  163  A    between atoms: _371  and  _372
REMARK  164  A    between atoms: _377  and  _378
REMARK  165  A    between atoms: _380  and  _382
REMARK  166  A    between atoms: _382  and  _383
REMARK  167  A    between atoms: _382  and  _385
REMARK  168  A    between atoms: _385  and  _386
REMARK  169  A    between atoms: _388  and  _390
REMARK  170  A    between atoms: _390  and  _391
REMARK  171  A    between atoms: _394  and  _396
REMARK  172  A    between atoms: _396  and  _397
REMARK  173  A    between atoms: _396  and  _399
REMARK  174  A    between atoms: _402  and  _404
REMARK  175  A    between atoms: _404  and  _405
REMARK  176  A    between atoms: _404  and  _407
REMARK  177  A    between atoms: _407  and  _408
REMARK  178  A    between atoms: _411  and  _413
REMARK  179  A    between atoms: _413  and  _414
REMARK  180  A    between atoms: _413  and  _416
REMARK  181  A    between atoms: _419  and  _421
REMARK  182  A    between atoms: _421  and  _422
REMARK  183  A    between atoms: _421  and  _424
REMARK  184  A    between atoms: _424  and  _425
REMARK  185  A    between atoms: _428  and  _430
REMARK  186  A    between atoms: _430  and  _431
REMARK  187  A    between atoms: _430  and  _433
REMARK  188  A    between atoms: _433  and  _434
REMARK  189  A    between atoms: _437  and  _439
REMARK  190  A    between atoms: _439  and  _440
REMARK  191  A    between atoms: _439  and  _442
REMARK  192  A    between atoms: _442  and  _443
REMARK  193  A    between atoms: _443  and  _444
REMARK  194  A    between atoms: _444  and  _445
REMARK  195  A    between atoms: _445  and  _446
REMARK  196  A    between atoms: _450  and  _452
REMARK  197  A    between atoms: _452  and  _453
REMARK  198  A    between atoms: _452  and  _455
REMARK  199  A    between atoms: _455  and  _456
REMARK  200  A    between atoms: _461  and  _463
REMARK  201  A    between atoms: _463  and  _464
REMARK  202  A    between atoms: _463  and  _466
REMARK  203  A    between atoms: _466  and  _467
REMARK  204  A    between atoms: _477  and  _479
REMARK  205  A    between atoms: _479  and  _480
REMARK  206  A    between atoms: _482  and  _484
REMARK  207  A    between atoms: _484  and  _485
REMARK  208  A    between atoms: _484  and  _487
REMARK  209  A    between atoms: _487  and  _488
REMARK  210  A    between atoms: _491  and  _493
REMARK  211  A    between atoms: _493  and  _494
REMARK  212  A    between atoms: _493  and  _496
REMARK  213  A    between atoms: _496  and  _497
REMARK  214  A    between atoms: _497  and  _498
REMARK  215  A    between atoms: _498  and  _499
REMARK  216  A    between atoms: _499  and  _500
REMARK  217  A    between atoms: _504  and  _506
REMARK  218  A    between atoms: _506  and  _507
REMARK  219  A    between atoms: _506  and  _509
REMARK                            x       y       z     vdW  Elec       q    Type
REMARK                         _______ _______ _______ _____ _____    ______ ____
ROOT
ATOM      1  O   HOH     1      38.984 -41.080  59.884  0.00  0.00    +0.000 OA
ENDROOT
TORSDOF 0
REMARK  Name = ../refined-set-2016/1yet/1yet_pocket.pdb
REMARK  219 active torsions:
REMARK  status: ('A' for Active; 'I' for Inactive)
REMARK    1  A    between atoms: _1  and  _3
REMARK    2  A    between atoms: _3  and  _4
REMARK    3  A    between atoms: _3  and  _6
REMARK    4  A    between atoms: _6  and  _7
REMARK    5  A    between atoms: _10  and  _12
REMARK    6  A    between atoms: _12  and  _13
REMARK    7  A    between atoms: _12  and  _15
REMARK    8  A    between atoms: _15  and  _16
REMARK    9  A    between atoms: _19  and  _21
REMARK   10  A    between atoms: _21  and  _22
REMARK   11  A    between atoms: _21  and  _24
REMARK   12  A    between atoms: _24  and  _25
REMARK   13  A    between atoms: _25  and  _26
REMARK   14  A    between atoms: _29  and  _31
REMARK   15  A    between atoms: _31  and  _32
REMARK   16  A    between atoms: _31  and  _34
REMARK   17  A    between atoms: _34  and  _35
REMARK   18  A    between atoms: _38  and  _40
REMARK   19  A    between atoms: _40  and  _41
REMARK   20  A    between atoms: _40  and  _43
REMARK   21  A    between atoms: _43  and  _44
REMARK   22  A    between atoms: _47  and  _49
REMARK   23  A    between atoms: _49  and  _50
REMARK   24  A    between atoms: _49  and  _52
REMARK   25  A    between atoms: _52  and  _53
REMARK   26  A    between atoms: _55  and  _57
REMARK   27  A    between atoms: _57  and  _58
REMARK   28  A    between atoms: _57  and  _60
REMARK   29  A    between atoms: _60  and  _61
REMARK   30  A    between atoms: _66  and  _68
REMARK   31  A    between atoms: _68  and  _69
REMARK   32  A    between atoms: _68  and  _71
REMARK   33  A    between atoms: _71  and  _72
REMARK   34  A    between atoms: _74  and  _76
REMARK   35  A    between atoms: _76  and  _77
REMARK   36  A    between atoms: _76  and  _79
REMARK   37  A    between atoms: _79  and  _80
REMARK   38  A    between atoms: _82  and  _84
REMARK   39  A    between atoms: _84  and  _85
REMARK   40  A    between atoms: _84  and  _87
REMARK   41  A    between atoms: _87  and  _88
REMARK   42  A    between atoms: _91  and  _93
REMARK   43  A    between atoms: _93  and  _94
REMARK   44  A    between atoms: _97  and  _99
REMARK   45  A    between atoms: _99  and  _100
REMARK   46  A    between atoms: _99  and  _102
REMARK   47  A    between atoms: _102  and  _103
REMARK   48  A    between atoms: _106  and  _108
REMARK   49  A    between atoms: _108  and  _109
REMARK   50  A    between atoms: _108  and  _111
REMARK   51  A    between atoms: _111  and  _112
REMARK   52  A    between atoms: _115  and  _117
REMARK   53  A    between atoms: _117  and  _118
REMARK   54  A    between atoms: _117  and  _120
REMARK   55  A    between atoms: _120  and  _121
REMARK   56  A    between atoms: _121  and  _122
REMARK   57  A    between atoms: _122  and  _123
REMARK   58  A    between atoms: _123  and  _124
REMARK   59  A    between atoms: _128  and  _130
REMARK   60  A    between atoms: _130  and  _131
REMARK   61  A    between atoms: _130  and  _133
REMARK   62  A    between atoms: _133  and  _134
REMARK   63  A    between atoms: _137  and  _139
REMARK   64  A    between atoms: _139  and  _140
REMARK   65  A    between atoms: _139  and  _142
REMARK   66  A    between atoms: _142  and  _143
REMARK   67  A    between atoms: _143  and  _144
REMARK   68  A    between atoms: _147  and  _149
REMARK   69  A    between atoms: _149  and  _150
REMARK   70  A    between atoms: _149  and  _152
REMARK   71  A    between atoms: _152  and  _153
REMARK   72  A    between atoms: _156  and  _158
REMARK   73  A    between atoms: _158  and  _159
REMARK   74  A    between atoms: _158  and  _161
REMARK   75  A    between atoms: _161  and  _162
REMARK   76  A    between atoms: _165  and  _167
REMARK   77  A    between atoms: _167  and  _168
REMARK   78  A    between atoms: _167  and  _170
REMARK   79  A    between atoms: _173  and  _175
REMARK   80  A    between atoms: _175  and  _176
REMARK   81  A    between atoms: _175  and  _178
REMARK   82  A    between atoms: _178  and  _179
REMARK   83  A    between atoms: _182  and  _184
REMARK   84  A    between atoms: _184  and  _185
REMARK   85  A    between atoms: _184  and  _187
REMARK   86  A    between atoms: _187  and  _188
REMARK   87  A    between atoms: _191  and  _193
REMARK   88  A    between atoms: _193  and  _194
REMARK   89  A    between atoms: _196  and  _198
REMARK   90  A    between atoms: _198  and  _199
REMARK   91  A    between atoms: _198  and  _201
REMARK   92  A    between atoms: _201  and  _202
REMARK   93  A    between atoms: _205  and  _207
REMARK   94  A    between atoms: _207  and  _208
REMARK   95  A    between atoms: _210  and  _212
REMARK   96  A    between atoms: _212  and  _213
REMARK   97  A    between atoms: _212  and  _215
REMARK   98  A    between atoms: _215  and  _216
REMARK   99  A    between atoms: _216  and  _217
REMARK  100  A    between atoms: _219  and  _221
REMARK  101  A    between atoms: _221  and  _222
REMARK  102  A    between atoms: _221  and  _224
REMARK  103  A    between atoms: _224  and  _225
REMARK  104  A    between atoms: _228  and  _230
REMARK  105  A    between atoms: _230  and  _231
REMARK  106  A    between atoms: _234  and  _236
REMARK  107  A    between atoms: _236  and  _237
REMARK  108  A    between atoms: _236  and  _239
REMARK  109  A    between atoms: _239  and  _240
REMARK  110  A    between atoms: _243  and  _245
REMARK  111  A    between atoms: _245  and  _246
REMARK  112  A    between atoms: _245  and  _248
REMARK  113  A    between atoms: _248  and  _249
REMARK  114  A    between atoms: _252  and  _254
REMARK  115  A    between atoms: _254  and  _255
REMARK  116  A    between atoms: _254  and  _257
REMARK  117  A    between atoms: _257  and  _258
REMARK  118  A    between atoms: _263  and  _265
REMARK  119  A    between atoms: _265  and  _266
REMARK  120  A    between atoms: _265  and  _268
REMARK  121  A    between atoms: _268  and  _269
REMARK  122  A    between atoms: _274  and  _276
REMARK  123  A    between atoms: _276  and  _277
REMARK  124  A    between atoms: _276  and  _279
REMARK  125  A    between atoms: _279  and  _280
REMARK  126  A    between atoms: _283  and  _285
REMARK  127  A    between atoms: _285  and  _286
REMARK  128  A    between atoms: _288  and  _290
REMARK  129  A    between atoms: _290  and  _291
REMARK  130  A    between atoms: _290  and  _293
REMARK  131  A    between atoms: _293  and  _294
REMARK  132  A    between atoms: _297  and  _299
REMARK  133  A    between atoms: _299  and  _300
REMARK  134  A    between atoms: _299  and  _302
REMARK  135  A    between atoms: _302  and  _303
REMARK  136  A    between atoms: _303  and  _304
REMARK  137  A    between atoms: _304  and  _305
REMARK  138  A    between atoms: _305  and  _306
REMARK  139  A    between atoms: _310  and  _312
REMARK  140  A    between atoms: _312  and  _313
REMARK  141  A    between atoms: _312  and  _315
REMARK  142  A    between atoms: _315  and  _316
REMARK  143  A    between atoms: _319  and  _321
REMARK  144  A    between atoms: _321  and  _322
REMARK  145  A    between atoms: _324  and  _326
REMARK  146  A    between atoms: _326  and  _327
REMARK  147  A    between atoms: _326  and  _329
REMARK  148  A    between atoms: _329  and  _330
REMARK  149  A    between atoms: _336  and  _338
REMARK  150  A    between atoms: _338  and  _339
REMARK  151  A    between atoms: _341  and  _343
REMARK  152  A    between atoms: _343  and  _344
REMARK  153  A    between atoms: _343  and  _346
REMARK  154  A    between atoms: _349  and  _351
REMARK  155  A    between atoms: _351  and  _352
REMARK  156  A    between atoms: _354  and  _356
REMARK  157  A    between atoms: _356  and  _357
REMARK  158  A    between atoms: _356  and  _359
REMARK  159  A    between atoms: _359  and  _360
REMARK  160  A    between atoms: _366  and  _368
REMARK  161  A    between atoms: _368  and  _369
REMARK  162  A    between atoms: _368  and  _371
REMARK  163  A    between atoms: _371  and  _372
REMARK  164  A    between atoms: _377  and  _378
REMARK  165  A    between atoms: _380  and  _382
REMARK  166  A    between atoms: _382  and  _383
REMARK  167  A    between atoms: _382  and  _385
REMARK  168  A    between atoms: _385  and  _386
REMARK  169  A    between atoms: _388  and  _390
REMARK  170  A    between atoms: _390  and  _391
REMARK  171  A    between atoms: _394  and  _396
REMARK  172  A    between atoms: _396  and  _397
REMARK  173  A    between atoms: _396  and  _399
REMARK  174  A    between atoms: _402  and  _404
REMARK  175  A    between atoms: _404  and  _405
REMARK  176  A    between atoms: _404  and  _407
REMARK  177  A    between atoms: _407  and  _408
REMARK  178  A    between atoms: _411  and  _413
REMARK  179  A    between atoms: _413  and  _414
REMARK  180  A    between atoms: _413  and  _416
REMARK  181  A    between atoms: _419  and  _421
REMARK  182  A    between atoms: _421  and  _422
REMARK  183  A    between atoms: _421  and  _424
REMARK  184  A    between atoms: _424  and  _425
REMARK  185  A    between atoms: _428  and  _430
REMARK  186  A    between atoms: _430  and  _431
REMARK  187  A    between atoms: _430  and  _433
REMARK  188  A    between atoms: _433  and  _434
REMARK  189  A    between atoms: _437  and  _439
REMARK  190  A    between atoms: _439  and  _440
REMARK  191  A    between atoms: _439  and  _442
REMARK  192  A    between atoms: _442  and  _443
REMARK  193  A    between atoms: _443  and  _444
REMARK  194  A    between atoms: _444  and  _445
REMARK  195  A    between atoms: _445  and  _446
REMARK  196  A    between atoms: _450  and  _452
REMARK  197  A    between atoms: _452  and  _453
REMARK  198  A    between atoms: _452  and  _455
REMARK  199  A    between atoms: _455  and  _456
REMARK  200  A    between atoms: _461  and  _463
REMARK  201  A    between atoms: _463  and  _464
REMARK  202  A    between atoms: _463  and  _466
REMARK  203  A    between atoms: _466  and  _467
REMARK  204  A    between atoms: _477  and  _479
REMARK  205  A    between atoms: _479  and  _480
REMARK  206  A    between atoms: _482  and  _484
REMARK  207  A    between atoms: _484  and  _485
REMARK  208  A    between atoms: _484  and  _487
REMARK  209  A    between atoms: _487  and  _488
REMARK  210  A    between atoms: _491  and  _493
REMARK  211  A    between atoms: _493  and  _494
REMARK  212  A    between atoms: _493  and  _496
REMARK  213  A    between atoms: _496  and  _497
REMARK  214  A    between atoms: _497  and  _498
REMARK  215  A    between atoms: _498  and  _499
REMARK  216  A    between atoms: _499  and  _500
REMARK  217  A    between atoms: _504  and  _506
REMARK  218  A    between atoms: _506  and  _507
REMARK  219  A    between atoms: _506  and  _509
REMARK                            x       y       z     vdW  Elec       q    Type
REMARK                         _______ _______ _______ _____ _____    ______ ____
ROOT
ATOM      1  O   HOH     1      35.159 -46.698  63.926  0.00  0.00    +0.000 OA
ENDROOT
TORSDOF 0
REMARK  Name = ../refined-set-2016/1yet/1yet_pocket.pdb
REMARK  219 active torsions:
REMARK  status: ('A' for Active; 'I' for Inactive)
REMARK    1  A    between atoms: _1  and  _3
REMARK    2  A    between atoms: _3  and  _4
REMARK    3  A    between atoms: _3  and  _6
REMARK    4  A    between atoms: _6  and  _7
REMARK    5  A    between atoms: _10  and  _12
REMARK    6  A    between atoms: _12  and  _13
REMARK    7  A    between atoms: _12  and  _15
REMARK    8  A    between atoms: _15  and  _16
REMARK    9  A    between atoms: _19  and  _21
REMARK   10  A    between atoms: _21  and  _22
REMARK   11  A    between atoms: _21  and  _24
REMARK   12  A    between atoms: _24  and  _25
REMARK   13  A    between atoms: _25  and  _26
REMARK   14  A    between atoms: _29  and  _31
REMARK   15  A    between atoms: _31  and  _32
REMARK   16  A    between atoms: _31  and  _34
REMARK   17  A    between atoms: _34  and  _35
REMARK   18  A    between atoms: _38  and  _40
REMARK   19  A    between atoms: _40  and  _41
REMARK   20  A    between atoms: _40  and  _43
REMARK   21  A    between atoms: _43  and  _44
REMARK   22  A    between atoms: _47  and  _49
REMARK   23  A    between atoms: _49  and  _50
REMARK   24  A    between atoms: _49  and  _52
REMARK   25  A    between atoms: _52  and  _53
REMARK   26  A    between atoms: _55  and  _57
REMARK   27  A    between atoms: _57  and  _58
REMARK   28  A    between atoms: _57  and  _60
REMARK   29  A    between atoms: _60  and  _61
REMARK   30  A    between atoms: _66  and  _68
REMARK   31  A    between atoms: _68  and  _69
REMARK   32  A    between atoms: _68  and  _71
REMARK   33  A    between atoms: _71  and  _72
REMARK   34  A    between atoms: _74  and  _76
REMARK   35  A    between atoms: _76  and  _77
REMARK   36  A    between atoms: _76  and  _79
REMARK   37  A    between atoms: _79  and  _80
REMARK   38  A    between atoms: _82  and  _84
REMARK   39  A    between atoms: _84  and  _85
REMARK   40  A    between atoms: _84  and  _87
REMARK   41  A    between atoms: _87  and  _88
REMARK   42  A    between atoms: _91  and  _93
REMARK   43  A    between atoms: _93  and  _94
REMARK   44  A    between atoms: _97  and  _99
REMARK   45  A    between atoms: _99  and  _100
REMARK   46  A    between atoms: _99  and  _102
REMARK   47  A    between atoms: _102  and  _103
REMARK   48  A    between atoms: _106  and  _108
REMARK   49  A    between atoms: _108  and  _109
REMARK   50  A    between atoms: _108  and  _111
REMARK   51  A    between atoms: _111  and  _112
REMARK   52  A    between atoms: _115  and  _117
REMARK   53  A    between atoms: _117  and  _118
REMARK   54  A    between atoms: _117  and  _120
REMARK   55  A    between atoms: _120  and  _121
REMARK   56  A    between atoms: _121  and  _122
REMARK   57  A    between atoms: _122  and  _123
REMARK   58  A    between atoms: _123  and  _124
REMARK   59  A    between atoms: _128  and  _130
REMARK   60  A    between atoms: _130  and  _131
REMARK   61  A    between atoms: _130  and  _133
REMARK   62  A    between atoms: _133  and  _134
REMARK   63  A    between atoms: _137  and  _139
REMARK   64  A    between atoms: _139  and  _140
REMARK   65  A    between atoms: _139  and  _142
REMARK   66  A    between atoms: _142  and  _143
REMARK   67  A    between atoms: _143  and  _144
REMARK   68  A    between atoms: _147  and  _149
REMARK   69  A    between atoms: _149  and  _150
REMARK   70  A    between atoms: _149  and  _152
REMARK   71  A    between atoms: _152  and  _153
REMARK   72  A    between atoms: _156  and  _158
REMARK   73  A    between atoms: _158  and  _159
REMARK   74  A    between atoms: _158  and  _161
REMARK   75  A    between atoms: _161  and  _162
REMARK   76  A    between atoms: _165  and  _167
REMARK   77  A    between atoms: _167  and  _168
REMARK   78  A    between atoms: _167  and  _170
REMARK   79  A    between atoms: _173  and  _175
REMARK   80  A    between atoms: _175  and  _176
REMARK   81  A    between atoms: _175  and  _178
REMARK   82  A    between atoms: _178  and  _179
REMARK   83  A    between atoms: _182  and  _184
REMARK   84  A    between atoms: _184  and  _185
REMARK   85  A    between atoms: _184  and  _187
REMARK   86  A    between atoms: _187  and  _188
REMARK   87  A    between atoms: _191  and  _193
REMARK   88  A    between atoms: _193  and  _194
REMARK   89  A    between atoms: _196  and  _198
REMARK   90  A    between atoms: _198  and  _199
REMARK   91  A    between atoms: _198  and  _201
REMARK   92  A    between atoms: _201  and  _202
REMARK   93  A    between atoms: _205  and  _207
REMARK   94  A    between atoms: _207  and  _208
REMARK   95  A    between atoms: _210  and  _212
REMARK   96  A    between atoms: _212  and  _213
REMARK   97  A    between atoms: _212  and  _215
REMARK   98  A    between atoms: _215  and  _216
REMARK   99  A    between atoms: _216  and  _217
REMARK  100  A    between atoms: _219  and  _221
REMARK  101  A    between atoms: _221  and  _222
REMARK  102  A    between atoms: _221  and  _224
REMARK  103  A    between atoms: _224  and  _225
REMARK  104  A    between atoms: _228  and  _230
REMARK  105  A    between atoms: _230  and  _231
REMARK  106  A    between atoms: _234  and  _236
REMARK  107  A    between atoms: _236  and  _237
REMARK  108  A    between atoms: _236  and  _239
REMARK  109  A    between atoms: _239  and  _240
REMARK  110  A    between atoms: _243  and  _245
REMARK  111  A    between atoms: _245  and  _246
REMARK  112  A    between atoms: _245  and  _248
REMARK  113  A    between atoms: _248  and  _249
REMARK  114  A    between atoms: _252  and  _254
REMARK  115  A    between atoms: _254  and  _255
REMARK  116  A    between atoms: _254  and  _257
REMARK  117  A    between atoms: _257  and  _258
REMARK  118  A    between atoms: _263  and  _265
REMARK  119  A    between atoms: _265  and  _266
REMARK  120  A    between atoms: _265  and  _268
REMARK  121  A    between atoms: _268  and  _269
REMARK  122  A    between atoms: _274  and  _276
REMARK  123  A    between atoms: _276  and  _277
REMARK  124  A    between atoms: _276  and  _279
REMARK  125  A    between atoms: _279  and  _280
REMARK  126  A    between atoms: _283  and  _285
REMARK  127  A    between atoms: _285  and  _286
REMARK  128  A    between atoms: _288  and  _290
REMARK  129  A    between atoms: _290  and  _291
REMARK  130  A    between atoms: _290  and  _293
REMARK  131  A    between atoms: _293  and  _294
REMARK  132  A    between atoms: _297  and  _299
REMARK  133  A    between atoms: _299  and  _300
REMARK  134  A    between atoms: _299  and  _302
REMARK  135  A    between atoms: _302  and  _303
REMARK  136  A    between atoms: _303  and  _304
REMARK  137  A    between atoms: _304  and  _305
REMARK  138  A    between atoms: _305  and  _306
REMARK  139  A    between atoms: _310  and  _312
REMARK  140  A    between atoms: _312  and  _313
REMARK  141  A    between atoms: _312  and  _315
REMARK  142  A    between atoms: _315  and  _316
REMARK  143  A    between atoms: _319  and  _321
REMARK  144  A    between atoms: _321  and  _322
REMARK  145  A    between atoms: _324  and  _326
REMARK  146  A    between atoms: _326  and  _327
REMARK  147  A    between atoms: _326  and  _329
REMARK  148  A    between atoms: _329  and  _330
REMARK  149  A    between atoms: _336  and  _338
REMARK  150  A    between atoms: _338  and  _339
REMARK  151  A    between atoms: _341  and  _343
REMARK  152  A    between atoms: _343  and  _344
REMARK  153  A    between atoms: _343  and  _346
REMARK  154  A    between atoms: _349  and  _351
REMARK  155  A    between atoms: _351  and  _352
REMARK  156  A    between atoms: _354  and  _356
REMARK  157  A    between atoms: _356  and  _357
REMARK  158  A    between atoms: _356  and  _359
REMARK  159  A    between atoms: _359  and  _360
REMARK  160  A    between atoms: _366  and  _368
REMARK  161  A    between atoms: _368  and  _369
REMARK  162  A    between atoms: _368  and  _371
REMARK  163  A    between atoms: _371  and  _372
REMARK  164  A    between atoms: _377  and  _378
REMARK  165  A    between atoms: _380  and  _382
REMARK  166  A    between atoms: _382  and  _383
REMARK  167  A    between atoms: _382  and  _385
REMARK  168  A    between atoms: _385  and  _386
REMARK  169  A    between atoms: _388  and  _390
REMARK  170  A    between atoms: _390  and  _391
REMARK  171  A    between atoms: _394  and  _396
REMARK  172  A    between atoms: _396  and  _397
REMARK  173  A    between atoms: _396  and  _399
REMARK  174  A    between atoms: _402  and  _404
REMARK  175  A    between atoms: _404  and  _405
REMARK  176  A    between atoms: _404  and  _407
REMARK  177  A    between atoms: _407  and  _408
REMARK  178  A    between atoms: _411  and  _413
REMARK  179  A    between atoms: _413  and  _414
REMARK  180  A    between atoms: _413  and  _416
REMARK  181  A    between atoms: _419  and  _421
REMARK  182  A    between atoms: _421  and  _422
REMARK  183  A    between atoms: _421  and  _424
REMARK  184  A    between atoms: _424  and  _425
REMARK  185  A    between atoms: _428  and  _430
REMARK  186  A    between atoms: _430  and  _431
REMARK  187  A    between atoms: _430  and  _433
REMARK  188  A    between atoms: _433  and  _434
REMARK  189  A    between atoms: _437  and  _439
REMARK  190  A    between atoms: _439  and  _440
REMARK  191  A    between atoms: _439  and  _442
REMARK  192  A    between atoms: _442  and  _443
REMARK  193  A    between atoms: _443  and  _444
REMARK  194  A    between atoms: _444  and  _445
REMARK  195  A    between atoms: _445  and  _446
REMARK  196  A    between atoms: _450  and  _452
REMARK  197  A    between atoms: _452  and  _453
REMARK  198  A    between atoms: _452  and  _455
REMARK  199  A    between atoms: _455  and  _456
REMARK  200  A    between atoms: _461  and  _463
REMARK  201  A    between atoms: _463  and  _464
REMARK  202  A    between atoms: _463  and  _466
REMARK  203  A    between atoms: _466  and  _467
REMARK  204  A    between atoms: _477  and  _479
REMARK  205  A    between atoms: _479  and  _480
REMARK  206  A    between atoms: _482  and  _484
REMARK  207  A    between atoms: _484  and  _485
REMARK  208  A    between atoms: _484  and  _487
REMARK  209  A    between atoms: _487  and  _488
REMARK  210  A    between atoms: _491  and  _493
REMARK  211  A    between atoms: _493  and  _494
REMARK  212  A    between atoms: _493  and  _496
REMARK  213  A    between atoms: _496  and  _497
REMARK  214  A    between atoms: _497  and  _498
REMARK  215  A    between atoms: _498  and  _499
REMARK  216  A    between atoms: _499  and  _500
REMARK  217  A    between atoms: _504  and  _506
REMARK  218  A    between atoms: _506  and  _507
REMARK  219  A    between atoms: _506  and  _509
REMARK                            x       y       z     vdW  Elec       q    Type
REMARK                         _______ _______ _______ _____ _____    ______ ____
ROOT
ATOM      1  O   HOH     1      37.085 -39.929  71.029  0.00  0.00    +0.000 OA
ENDROOT
TORSDOF 0
