REMARK  Name = ../refined-set-2016/4ncn/4ncn_pocket.pdb
REMARK  233 active torsions:
REMARK  status: ('A' for Active; 'I' for Inactive)
REMARK    1  A    between atoms: _1  and  _3
REMARK    2  A    between atoms: _3  and  _4
REMARK    3  A    between atoms: _3  and  _6
REMARK    4  A    between atoms: _6  and  _7
REMARK    5  A    between atoms: _10  and  _12
REMARK    6  A    between atoms: _12  and  _13
REMARK    7  A    between atoms: _12  and  _15
REMARK    8  A    between atoms: _15  and  _16
REMARK    9  A    between atoms: _19  and  _21
REMARK   10  A    between atoms: _21  and  _22
REMARK   11  A    between atoms: _24  and  _26
REMARK   12  A    between atoms: _26  and  _27
REMARK   13  A    between atoms: _26  and  _29
REMARK   14  A    between atoms: _29  and  _30
REMARK   15  A    between atoms: _35  and  _37
REMARK   16  A    between atoms: _37  and  _38
REMARK   17  A    between atoms: _37  and  _40
REMARK   18  A    between atoms: _43  and  _45
REMARK   19  A    between atoms: _45  and  _46
REMARK   20  A    between atoms: _45  and  _48
REMARK   21  A    between atoms: _48  and  _49
REMARK   22  A    between atoms: _52  and  _54
REMARK   23  A    between atoms: _54  and  _55
REMARK   24  A    between atoms: _54  and  _57
REMARK   25  A    between atoms: _57  and  _58
REMARK   26  A    between atoms: _61  and  _63
REMARK   27  A    between atoms: _63  and  _64
REMARK   28  A    between atoms: _66  and  _68
REMARK   29  A    between atoms: _68  and  _69
REMARK   30  A    between atoms: _68  and  _71
REMARK   31  A    between atoms: _71  and  _72
REMARK   32  A    between atoms: _72  and  _73
REMARK   33  A    between atoms: _73  and  _74
REMARK   34  A    between atoms: _74  and  _75
REMARK   35  A    between atoms: _79  and  _81
REMARK   36  A    between atoms: _81  and  _82
REMARK   37  A    between atoms: _81  and  _84
REMARK   38  A    between atoms: _84  and  _85
REMARK   39  A    between atoms: _88  and  _90
REMARK   40  A    between atoms: _90  and  _91
REMARK   41  A    between atoms: _90  and  _93
REMARK   42  A    between atoms: _93  and  _94
REMARK   43  A    between atoms: _94  and  _95
REMARK   44  A    between atoms: _95  and  _96
REMARK   45  A    between atoms: _96  and  _97
REMARK   46  A    between atoms: _101  and  _103
REMARK   47  A    between atoms: _103  and  _104
REMARK   48  A    between atoms: _103  and  _106
REMARK   49  A    between atoms: _106  and  _107
REMARK   50  A    between atoms: _110  and  _112
REMARK   51  A    between atoms: _112  and  _113
REMARK   52  A    between atoms: _112  and  _115
REMARK   53  A    between atoms: _115  and  _116
REMARK   54  A    between atoms: _119  and  _121
REMARK   55  A    between atoms: _121  and  _122
REMARK   56  A    between atoms: _121  and  _124
REMARK   57  A    between atoms: _124  and  _125
REMARK   58  A    between atoms: _128  and  _130
REMARK   59  A    between atoms: _130  and  _131
REMARK   60  A    between atoms: _130  and  _133
REMARK   61  A    between atoms: _133  and  _134
REMARK   62  A    between atoms: _134  and  _135
REMARK   63  A    between atoms: _135  and  _136
REMARK   64  A    between atoms: _136  and  _137
REMARK   65  A    between atoms: _141  and  _143
REMARK   66  A    between atoms: _143  and  _144
REMARK   67  A    between atoms: _143  and  _146
REMARK   68  A    between atoms: _146  and  _147
REMARK   69  A    between atoms: _147  and  _148
REMARK   70  A    between atoms: _148  and  _149
REMARK   71  A    between atoms: _158  and  _160
REMARK   72  A    between atoms: _160  and  _161
REMARK   73  A    between atoms: _160  and  _163
REMARK   74  A    between atoms: _166  and  _168
REMARK   75  A    between atoms: _168  and  _169
REMARK   76  A    between atoms: _168  and  _171
REMARK   77  A    between atoms: _171  and  _172
REMARK   78  A    between atoms: _172  and  _173
REMARK   79  A    between atoms: _178  and  _180
REMARK   80  A    between atoms: _180  and  _181
REMARK   81  A    between atoms: _180  and  _183
REMARK   82  A    between atoms: _183  and  _184
REMARK   83  A    between atoms: _184  and  _185
REMARK   84  A    between atoms: _188  and  _190
REMARK   85  A    between atoms: _190  and  _191
REMARK   86  A    between atoms: _190  and  _193
REMARK   87  A    between atoms: _193  and  _194
REMARK   88  A    between atoms: _194  and  _195
REMARK   89  A    between atoms: _198  and  _200
REMARK   90  A    between atoms: _200  and  _201
REMARK   91  A    between atoms: _204  and  _206
REMARK   92  A    between atoms: _206  and  _207
REMARK   93  A    between atoms: _209  and  _211
REMARK   94  A    between atoms: _211  and  _212
REMARK   95  A    between atoms: _212  and  _213
REMARK   96  A    between atoms: _212  and  _214
REMARK   97  A    between atoms: _214  and  _216
REMARK   98  A    between atoms: _216  and  _217
REMARK   99  A    between atoms: _216  and  _219
REMARK  100  A    between atoms: _219  and  _220
REMARK  101  A    between atoms: _223  and  _225
REMARK  102  A    between atoms: _225  and  _226
REMARK  103  A    between atoms: _225  and  _228
REMARK  104  A    between atoms: _228  and  _229
REMARK  105  A    between atoms: _232  and  _234
REMARK  106  A    between atoms: _234  and  _235
REMARK  107  A    between atoms: _234  and  _237
REMARK  108  A    between atoms: _237  and  _238
REMARK  109  A    between atoms: _238  and  _239
REMARK  110  A    between atoms: _244  and  _246
REMARK  111  A    between atoms: _246  and  _247
REMARK  112  A    between atoms: _246  and  _249
REMARK  113  A    between atoms: _249  and  _250
REMARK  114  A    between atoms: _250  and  _251
REMARK  115  A    between atoms: _256  and  _258
REMARK  116  A    between atoms: _258  and  _259
REMARK  117  A    between atoms: _258  and  _261
REMARK  118  A    between atoms: _261  and  _262
REMARK  119  A    between atoms: _265  and  _267
REMARK  120  A    between atoms: _267  and  _268
REMARK  121  A    between atoms: _267  and  _270
REMARK  122  A    between atoms: _270  and  _271
REMARK  123  A    between atoms: _275  and  _276
REMARK  124  A    between atoms: _281  and  _283
REMARK  125  A    between atoms: _283  and  _284
REMARK  126  A    between atoms: _286  and  _288
REMARK  127  A    between atoms: _288  and  _289
REMARK  128  A    between atoms: _288  and  _291
REMARK  129  A    between atoms: _291  and  _292
REMARK  130  A    between atoms: _297  and  _299
REMARK  131  A    between atoms: _299  and  _300
REMARK  132  A    between atoms: _299  and  _302
REMARK  133  A    between atoms: _302  and  _303
REMARK  134  A    between atoms: _303  and  _304
REMARK  135  A    between atoms: _307  and  _309
REMARK  136  A    between atoms: _309  and  _310
REMARK  137  A    between atoms: _309  and  _312
REMARK  138  A    between atoms: _312  and  _313
REMARK  139  A    between atoms: _319  and  _321
REMARK  140  A    between atoms: _321  and  _322
REMARK  141  A    between atoms: _321  and  _324
REMARK  142  A    between atoms: _324  and  _325
REMARK  143  A    between atoms: _325  and  _326
REMARK  144  A    between atoms: _326  and  _327
REMARK  145  A    between atoms: _336  and  _338
REMARK  146  A    between atoms: _338  and  _339
REMARK  147  A    between atoms: _338  and  _341
REMARK  148  A    between atoms: _344  and  _346
REMARK  149  A    between atoms: _346  and  _347
REMARK  150  A    between atoms: _346  and  _349
REMARK  151  A    between atoms: _349  and  _350
REMARK  152  A    between atoms: _353  and  _355
REMARK  153  A    between atoms: _355  and  _356
REMARK  154  A    between atoms: _355  and  _358
REMARK  155  A    between atoms: _358  and  _359
REMARK  156  A    between atoms: _362  and  _364
REMARK  157  A    between atoms: _364  and  _365
REMARK  158  A    between atoms: _364  and  _367
REMARK  159  A    between atoms: _367  and  _368
REMARK  160  A    between atoms: _368  and  _369
REMARK  161  A    between atoms: _371  and  _373
REMARK  162  A    between atoms: _373  and  _374
REMARK  163  A    between atoms: _373  and  _376
REMARK  164  A    between atoms: _376  and  _377
REMARK  165  A    between atoms: _377  and  _378
REMARK  166  A    between atoms: _383  and  _385
REMARK  167  A    between atoms: _385  and  _386
REMARK  168  A    between atoms: _385  and  _388
REMARK  169  A    between atoms: _388  and  _389
REMARK  170  A    between atoms: _392  and  _394
REMARK  171  A    between atoms: _394  and  _395
REMARK  172  A    between atoms: _394  and  _397
REMARK  173  A    between atoms: _397  and  _398
REMARK  174  A    between atoms: _403  and  _405
REMARK  175  A    between atoms: _405  and  _406
REMARK  176  A    between atoms: _405  and  _408
REMARK  177  A    between atoms: _408  and  _409
REMARK  178  A    between atoms: _409  and  _410
REMARK  179  A    between atoms: _410  and  _411
REMARK  180  A    between atoms: _411  and  _412
REMARK  181  A    between atoms: _416  and  _418
REMARK  182  A    between atoms: _418  and  _419
REMARK  183  A    between atoms: _418  and  _421
REMARK  184  A    between atoms: _421  and  _422
REMARK  185  A    between atoms: _425  and  _427
REMARK  186  A    between atoms: _427  and  _428
REMARK  187  A    between atoms: _427  and  _430
REMARK  188  A    between atoms: _430  and  _431
REMARK  189  A    between atoms: _434  and  _436
REMARK  190  A    between atoms: _436  and  _437
REMARK  191  A    between atoms: _436  and  _439
REMARK  192  A    between atoms: _439  and  _440
REMARK  193  A    between atoms: _440  and  _441
REMARK  194  A    between atoms: _441  and  _442
REMARK  195  A    between atoms: _451  and  _453
REMARK  196  A    between atoms: _453  and  _454
REMARK  197  A    between atoms: _453  and  _456
REMARK  198  A    between atoms: _456  and  _457
REMARK  199  A    between atoms: _460  and  _462
REMARK  200  A    between atoms: _462  and  _463
REMARK  201  A    between atoms: _462  and  _465
REMARK  202  A    between atoms: _465  and  _466
REMARK  203  A    between atoms: _469  and  _471
REMARK  204  A    between atoms: _471  and  _472
REMARK  205  A    between atoms: _471  and  _474
REMARK  206  A    between atoms: _474  and  _475
REMARK  207  A    between atoms: _477  and  _479
REMARK  208  A    between atoms: _479  and  _480
REMARK  209  A    between atoms: _483  and  _485
REMARK  210  A    between atoms: _485  and  _486
REMARK  211  A    between atoms: _485  and  _488
REMARK  212  A    between atoms: _488  and  _489
REMARK  213  A    between atoms: _494  and  _496
REMARK  214  A    between atoms: _496  and  _497
REMARK  215  A    between atoms: _496  and  _499
REMARK  216  A    between atoms: _499  and  _500
REMARK  217  A    between atoms: _503  and  _505
REMARK  218  A    between atoms: _505  and  _506
REMARK  219  A    between atoms: _508  and  _510
REMARK  220  A    between atoms: _510  and  _511
REMARK  221  A    between atoms: _510  and  _513
REMARK  222  A    between atoms: _513  and  _514
REMARK  223  A    between atoms: _514  and  _515
REMARK  224  A    between atoms: _518  and  _520
REMARK  225  A    between atoms: _520  and  _521
REMARK  226  A    between atoms: _520  and  _523
REMARK  227  A    between atoms: _523  and  _524
REMARK  228  A    between atoms: _527  and  _529
REMARK  229  A    between atoms: _529  and  _530
REMARK  230  A    between atoms: _529  and  _532
REMARK  231  A    between atoms: _532  and  _533
REMARK  232  A    between atoms: _533  and  _534
REMARK  233  A    between atoms: _534  and  _535
REMARK                            x       y       z     vdW  Elec       q    Type
REMARK                         _______ _______ _______ _____ _____    ______ ____
ROOT
ATOM      1  CA  LYS A   9      -7.121  17.260  14.879  0.00  0.00    +0.149 C 
ENDROOT
BRANCH   1   3
ATOM      2  C   GLY A   8      -8.623  18.867  13.869  0.00  0.00    +0.243 C 
ATOM      3  N   LYS A   9      -8.464  17.718  14.510  0.00  0.00    -0.297 N 
ATOM      4  H   LYS A   9      -9.294  17.140  14.752  0.00  0.00    +0.150 HD
ATOM      5  O   GLY A   8      -7.674  19.601  13.641  0.00  0.00    -0.273 OA
BRANCH   2   6
ATOM      6  CA  GLY A   8     -10.049  19.240  13.423  0.00  0.00    +0.176 C 
BRANCH   6   9
ATOM      7  C   THR A   7     -11.940  19.171  15.014  0.00  0.00    +0.243 C 
ATOM      8  O   THR A   7     -11.818  20.330  15.339  0.00  0.00    -0.273 OA
ATOM      9  N   GLY A   8     -11.107  18.527  14.173  0.00  0.00    -0.295 N 
ATOM     10  H   GLY A   8     -11.211  17.500  14.047  0.00  0.00    +0.150 HD
BRANCH   7  11
ATOM     11  CA  THR A   7     -13.105  18.386  15.577  0.00  0.00    +0.176 C 
BRANCH  11  13
ATOM     12  C   ASP A   6     -14.005  17.210  13.662  0.00  0.00    +0.241 C 
ATOM     13  N   THR A   7     -13.343  17.153  14.819  0.00  0.00    -0.295 N 
ATOM     14  H   THR A   7     -12.998  16.241  15.181  0.00  0.00    +0.150 HD
ATOM     15  O   ASP A   6     -14.413  18.268  13.186  0.00  0.00    -0.273 OA
BRANCH  12  16
ATOM     16  CA  ASP A   6     -14.222  15.904  12.877  0.00  0.00    +0.160 C 
BRANCH  16  19
ATOM     17  C   VAL A   5     -14.980  14.384  14.677  0.00  0.00    +0.241 C 
ATOM     18  O   VAL A   5     -15.846  15.175  15.130  0.00  0.00    -0.273 OA
ATOM     19  N   ASP A   6     -14.142  14.683  13.679  0.00  0.00    -0.297 N 
ATOM     20  H   ASP A   6     -13.385  14.004  13.459  0.00  0.00    +0.150 HD
BRANCH  17  21
ATOM     21  CA  VAL A   5     -14.741  12.991  15.332  0.00  0.00    +0.149 C 
BRANCH  21  24
ATOM     22  C   HIS A   4     -14.096  13.820  17.503  0.00  0.00    +0.241 C 
ATOM     23  O   HIS A   4     -13.277  14.566  16.971  0.00  0.00    -0.273 OA
ATOM     24  N   VAL A   5     -14.890  13.035  16.793  0.00  0.00    -0.297 N 
ATOM     25  H   VAL A   5     -15.613  12.455  17.265  0.00  0.00    +0.150 HD
BRANCH  22  26
ATOM     26  CA  HIS A   4     -14.275  13.731  19.036  0.00  0.00    +0.155 C 
BRANCH  26  28
ATOM     27  C   GLY A   3     -11.912  13.720  19.583  0.00  0.00    +0.243 C 
ATOM     28  N   HIS A   4     -13.117  14.268  19.720  0.00  0.00    -0.297 N 
ATOM     29  H   HIS A   4     -13.230  15.101  20.332  0.00  0.00    +0.150 HD
ATOM     30  O   GLY A   3     -11.647  12.813  18.763  0.00  0.00    -0.273 OA
BRANCH  27  31
ATOM     31  CA  GLY A   3     -10.815  14.389  20.397  0.00  0.00    +0.176 C 
BRANCH  31  34
ATOM     32  C   LEU A   2      -8.444  14.208  20.702  0.00  0.00    +0.241 C 
ATOM     33  O   LEU A   2      -8.327  15.408  20.871  0.00  0.00    -0.273 OA
ATOM     34  N   GLY A   3      -9.605  13.614  20.391  0.00  0.00    -0.295 N 
ATOM     35  H   GLY A   3      -9.630  12.603  20.148  0.00  0.00    +0.150 HD
BRANCH  32  36
ATOM     36  CA  LEU A   2      -7.234  13.330  20.862  0.00  0.00    +0.149 C 
BRANCH  36  38
ATOM     37  C   ILE A   1      -5.061  13.783  19.740  0.00  0.00    +0.238 C 
ATOM     38  N   LEU A   2      -5.997  14.089  20.642  0.00  0.00    -0.297 N 
ATOM     39  H   LEU A   2      -5.837  14.929  21.234  0.00  0.00    +0.150 HD
ATOM     40  O   ILE A   1      -5.188  12.869  18.913  0.00  0.00    -0.274 OA
BRANCH  37  41
ATOM     41  CA  ILE A   1      -3.781  14.639  19.788  0.00  0.00    +0.145 C 
BRANCH  41  42
ATOM     42  N   ILE A   1      -2.679  13.701  19.966  0.00  0.00    -0.238 NA
ATOM     43  H   ILE A   1      -2.417  13.041  19.206  0.00  0.00    +0.142 HD
ENDBRANCH  41  42
BRANCH  41  44
ATOM     44  CB  ILE A   1      -3.597  15.535  18.515  0.00  0.00    +0.025 C 
ATOM     45  CG2 ILE A   1      -3.564  14.721  17.188  0.00  0.00    +0.002 C 
BRANCH  44  46
ATOM     46  CG1 ILE A   1      -4.668  16.639  18.448  0.00  0.00    +0.002 C 
ATOM     47  CD1 ILE A   1      -4.315  17.737  17.459  0.00  0.00    +0.000 C 
ENDBRANCH  44  46
ENDBRANCH  41  44
ENDBRANCH  37  41
ENDBRANCH  36  38
BRANCH  36  48
ATOM     48  CB  LEU A   2      -7.300  12.784  22.282  0.00  0.00    +0.029 C 
BRANCH  48  49
ATOM     49  CG  LEU A   2      -6.198  11.825  22.664  0.00  0.00    +0.002 C 
ATOM     50  CD2 LEU A   2      -6.042  11.735  24.193  0.00  0.00    +0.000 C 
ATOM     51  CD1 LEU A   2      -6.499  10.438  22.055  0.00  0.00    +0.000 C 
ENDBRANCH  48  49
ENDBRANCH  36  48
ENDBRANCH  32  36
ENDBRANCH  31  34
ENDBRANCH  27  31
ENDBRANCH  26  28
BRANCH  26  52
ATOM     52  CB  HIS A   4     -15.544  14.473  19.542  0.00  0.00    +0.076 C 
BRANCH  52  53
ATOM     53  CG  HIS A   4     -16.835  13.840  19.118  0.00  0.00    +0.082 A 
ATOM     54  ND1 HIS A   4     -17.390  12.742  19.760  0.00  0.00    -0.227 NA
ATOM     55  CE1 HIS A   4     -18.537  12.432  19.178  0.00  0.00    +0.199 A 
ATOM     56  NE2 HIS A   4     -18.747  13.289  18.191  0.00  0.00    -0.221 NA
ATOM     57  CD2 HIS A   4     -17.705  14.184  18.136  0.00  0.00    +0.115 A 
ENDBRANCH  52  53
ENDBRANCH  26  52
ENDBRANCH  22  26
ENDBRANCH  21  24
BRANCH  21  58
ATOM     58  CB  VAL A   5     -15.689  11.926  14.673  0.00  0.00    +0.027 C 
ATOM     59  CG2 VAL A   5     -17.201  12.414  14.723  0.00  0.00    +0.002 C 
ATOM     60  CG1 VAL A   5     -15.258  11.668  13.199  0.00  0.00    +0.002 C 
ENDBRANCH  21  58
ENDBRANCH  17  21
ENDBRANCH  16  19
BRANCH  16  61
ATOM     61  CB  ASP A   6     -15.591  15.981  12.127  0.00  0.00    +0.143 C 
BRANCH  61  62
ATOM     62  CG  ASP A   6     -15.612  15.042  10.925  0.00  0.00    +0.367 C 
ATOM     63  OD2 ASP A   6     -14.490  14.616  10.488  0.00  0.00    -0.246 OA
ATOM     64  OD1 ASP A   6     -16.711  14.669  10.470  0.00  0.00    -0.246 OA
ENDBRANCH  61  62
ENDBRANCH  16  61
ENDBRANCH  12  16
ENDBRANCH  11  13
BRANCH  11  65
ATOM     65  CB  THR A   7     -12.873  18.095  17.066  0.00  0.00    +0.137 C 
ATOM     66  CG2 THR A   7     -14.251  17.637  17.663  0.00  0.00    +0.034 C 
BRANCH  65  67
ATOM     67  OG1 THR A   7     -11.908  17.023  17.170  0.00  0.00    -0.382 OA
ATOM     68  HG1 THR A   7     -12.261  16.217  16.716  0.00  0.00    +0.210 HD
ENDBRANCH  65  67
ENDBRANCH  11  65
ENDBRANCH   7  11
ENDBRANCH   6   9
ENDBRANCH   2   6
ENDBRANCH   1   3
BRANCH   1  69
ATOM     69  C   LYS A   9      -6.154  17.242  13.694  0.00  0.00    +0.241 C 
ATOM     70  O   LYS A   9      -5.002  17.805  13.703  0.00  0.00    -0.273 OA
ATOM     71  N   THR A  10      -6.587  16.543  12.657  0.00  0.00    -0.295 N 
ATOM     72  H   THR A  10      -7.539  16.124  12.669  0.00  0.00    +0.150 HD
BRANCH  71  73
ATOM     73  CA  THR A  10      -5.725  16.364  11.502  0.00  0.00    +0.176 C 
BRANCH  73  74
ATOM     74  C   THR A  10      -5.597  17.711  10.761  0.00  0.00    +0.243 C 
ATOM     75  N   LYS A  11      -6.703  18.459  10.607  0.00  0.00    -0.297 N 
ATOM     76  H   LYS A  11      -7.621  18.106  10.945  0.00  0.00    +0.150 HD
ATOM     77  O   THR A  10      -4.518  18.027  10.301  0.00  0.00    -0.273 OA
BRANCH  75  78
ATOM     78  CA  LYS A  11      -6.616  19.764   9.966  0.00  0.00    +0.149 C 
BRANCH  78  79
ATOM     79  C   LYS A  11      -5.602  20.675  10.706  0.00  0.00    +0.241 C 
ATOM     80  N   LEU A  12      -5.547  20.624  12.053  0.00  0.00    -0.297 N 
ATOM     81  H   LEU A  12      -6.211  20.021  12.580  0.00  0.00    +0.150 HD
ATOM     82  O   LYS A  11      -4.824  21.440  10.034  0.00  0.00    -0.273 OA
BRANCH  80  83
ATOM     83  CA  LEU A  12      -4.539  21.429  12.778  0.00  0.00    +0.149 C 
BRANCH  83  84
ATOM     84  C   LEU A  12      -3.123  21.001  12.423  0.00  0.00    +0.241 C 
ATOM     85  N   LEU A  13      -2.903  19.682  12.499  0.00  0.00    -0.297 N 
ATOM     86  H   LEU A  13      -3.645  19.032  12.827  0.00  0.00    +0.150 HD
ATOM     87  O   LEU A  12      -2.228  21.837  12.127  0.00  0.00    -0.273 OA
BRANCH  85  88
ATOM     88  CA  LEU A  13      -1.568  19.180  12.100  0.00  0.00    +0.149 C 
BRANCH  88  89
ATOM     89  C   LEU A  13      -1.207  19.524  10.651  0.00  0.00    +0.241 C 
ATOM     90  O   LEU A  13      -0.078  19.894  10.386  0.00  0.00    -0.273 OA
ATOM     91  N   ASP A  14      -2.155  19.461   9.702  0.00  0.00    -0.297 N 
ATOM     92  H   ASP A  14      -3.103  19.113   9.952  0.00  0.00    +0.150 HD
BRANCH  91  93
ATOM     93  CA  ASP A  14      -1.880  19.876   8.307  0.00  0.00    +0.160 C 
BRANCH  93  94
ATOM     94  C   ASP A  14      -1.482  21.353   8.230  0.00  0.00    +0.241 C 
ATOM     95  N   LYS A  15      -2.146  22.199   9.035  0.00  0.00    -0.298 N 
ATOM     96  H   LYS A  15      -2.883  21.846   9.679  0.00  0.00    +0.150 HD
ATOM     97  O   ASP A  14      -0.677  21.741   7.393  0.00  0.00    -0.273 OA
BRANCH  95  98
ATOM     98  CA  LYS A  15      -1.819  23.623   8.994  0.00  0.00    +0.137 C 
BRANCH  98  99
ATOM     99  C   LYS A  15      -0.399  23.836   9.498  0.00  0.00    +0.227 C 
ATOM    100  O   LYS A  15       0.351  24.704   9.002  0.00  0.00    -0.286 OA
ENDBRANCH  98  99
BRANCH  98 101
ATOM    101  CB  LYS A  15      -2.826  24.444   9.828  0.00  0.00    +0.028 C 
BRANCH 101 102
ATOM    102  CG  LYS A  15      -2.721  25.982   9.642  0.00  0.00    -0.000 C 
BRANCH 102 103
ATOM    103  CD  LYS A  15      -2.984  26.431   8.192  0.00  0.00    -0.024 C 
BRANCH 103 104
ATOM    104  CE  LYS A  15      -3.283  27.932   8.136  0.00  0.00    -0.086 C 
BRANCH 104 105
ATOM    105  NZ  LYS A  15      -3.458  28.435   6.751  0.00  0.00    +0.380 N 
ATOM    106  HZ1 LYS A  15      -3.658  29.455   6.777  0.00  0.00    -0.089 HD
ATOM    107  HZ2 LYS A  15      -4.252  27.936   6.300  0.00  0.00    -0.089 HD
ATOM    108  HZ3 LYS A  15      -2.587  28.265   6.209  0.00  0.00    -0.089 HD
ENDBRANCH 104 105
ENDBRANCH 103 104
ENDBRANCH 102 103
ENDBRANCH 101 102
ENDBRANCH  98 101
ENDBRANCH  95  98
ENDBRANCH  93  94
BRANCH  93 109
ATOM    109  CB  ASP A  14      -3.124  19.717   7.437  0.00  0.00    +0.143 C 
BRANCH 109 110
ATOM    110  CG  ASP A  14      -3.296  18.283   6.869  0.00  0.00    +0.367 C 
ATOM    111  OD2 ASP A  14      -2.290  17.513   6.775  0.00  0.00    -0.246 OA
ATOM    112  OD1 ASP A  14      -4.442  17.957   6.477  0.00  0.00    -0.246 OA
ENDBRANCH 109 110
ENDBRANCH  93 109
ENDBRANCH  91  93
ENDBRANCH  88  89
BRANCH  88 113
ATOM    113  CB  LEU A  13      -1.504  17.646  12.306  0.00  0.00    +0.029 C 
BRANCH 113 114
ATOM    114  CG  LEU A  13      -1.641  17.213  13.761  0.00  0.00    +0.002 C 
ATOM    115  CD2 LEU A  13      -0.578  17.928  14.616  0.00  0.00    +0.000 C 
ATOM    116  CD1 LEU A  13      -1.522  15.653  13.897  0.00  0.00    +0.000 C 
ENDBRANCH 113 114
ENDBRANCH  88 113
ENDBRANCH  85  88
ENDBRANCH  83  84
BRANCH  83 117
ATOM    117  CB  LEU A  12      -4.739  21.293  14.307  0.00  0.00    +0.029 C 
BRANCH 117 118
ATOM    118  CG  LEU A  12      -5.924  22.030  14.850  0.00  0.00    +0.002 C 
ATOM    119  CD2 LEU A  12      -6.284  21.493  16.325  0.00  0.00    +0.000 C 
ATOM    120  CD1 LEU A  12      -5.656  23.598  14.896  0.00  0.00    +0.000 C 
ENDBRANCH 117 118
ENDBRANCH  83 117
ENDBRANCH  80  83
ENDBRANCH  78  79
BRANCH  78 121
ATOM    121  CB  LYS A  11      -8.035  20.412   9.864  0.00  0.00    +0.029 C 
BRANCH 121 122
ATOM    122  CG  LYS A  11      -8.168  21.404   8.706  0.00  0.00    +0.000 C 
BRANCH 122 123
ATOM    123  CD  LYS A  11      -8.149  20.638   7.351  0.00  0.00    -0.024 C 
BRANCH 123 124
ATOM    124  CE  LYS A  11      -8.207  21.625   6.165  0.00  0.00    -0.086 C 
BRANCH 124 125
ATOM    125  NZ  LYS A  11      -8.323  20.810   4.910  0.00  0.00    +0.380 N 
ATOM    126  HZ1 LYS A  11      -9.189  20.236   4.950  0.00  0.00    -0.089 HD
ATOM    127  HZ2 LYS A  11      -7.495  20.186   4.826  0.00  0.00    -0.089 HD
ATOM    128  HZ3 LYS A  11      -8.365  21.446   4.088  0.00  0.00    -0.089 HD
ENDBRANCH 124 125
ENDBRANCH 123 124
ENDBRANCH 122 123
ENDBRANCH 121 122
ENDBRANCH  78 121
ENDBRANCH  75  78
ENDBRANCH  73  74
BRANCH  73 129
ATOM    129  CB  THR A  10      -6.261  15.252  10.531  0.00  0.00    +0.137 C 
ATOM    130  CG2 THR A  10      -5.300  15.065   9.311  0.00  0.00    +0.034 C 
BRANCH 129 131
ATOM    131  OG1 THR A  10      -6.295  14.004  11.235  0.00  0.00    -0.382 OA
ATOM    132  HG1 THR A  10      -6.895  14.085  12.018  0.00  0.00    +0.210 HD
ENDBRANCH 129 131
ENDBRANCH  73 129
ENDBRANCH  71  73
ENDBRANCH   1  69
BRANCH   1 133
ATOM    133  CB  LYS A   9      -7.207  15.820  15.449  0.00  0.00    +0.029 C 
BRANCH 133 134
ATOM    134  CG  LYS A   9      -8.178  15.632  16.686  0.00  0.00    +0.000 C 
BRANCH 134 135
ATOM    135  CD  LYS A   9      -8.316  14.165  17.144  0.00  0.00    -0.024 C 
BRANCH 135 136
ATOM    136  CE  LYS A   9      -9.111  13.318  16.152  0.00  0.00    -0.086 C 
BRANCH 136 137
ATOM    137  NZ  LYS A   9     -10.670  13.665  16.084  0.00  0.00    +0.380 N 
ATOM    138  HZ1 LYS A   9     -11.098  13.517  17.020  0.00  0.00    -0.089 HD
ATOM    139  HZ2 LYS A   9     -10.791  14.658  15.800  0.00  0.00    -0.089 HD
ATOM    140  HZ3 LYS A   9     -11.132  13.045  15.388  0.00  0.00    -0.089 HD
ENDBRANCH 136 137
ENDBRANCH 135 136
ENDBRANCH 134 135
ENDBRANCH 133 134
ENDBRANCH   1 133
TORSDOF 64
REMARK  Name = ../refined-set-2016/4ncn/4ncn_pocket.pdb
REMARK  233 active torsions:
REMARK  status: ('A' for Active; 'I' for Inactive)
REMARK    1  A    between atoms: _1  and  _3
REMARK    2  A    between atoms: _3  and  _4
REMARK    3  A    between atoms: _3  and  _6
REMARK    4  A    between atoms: _6  and  _7
REMARK    5  A    between atoms: _10  and  _12
REMARK    6  A    between atoms: _12  and  _13
REMARK    7  A    between atoms: _12  and  _15
REMARK    8  A    between atoms: _15  and  _16
REMARK    9  A    between atoms: _19  and  _21
REMARK   10  A    between atoms: _21  and  _22
REMARK   11  A    between atoms: _24  and  _26
REMARK   12  A    between atoms: _26  and  _27
REMARK   13  A    between atoms: _26  and  _29
REMARK   14  A    between atoms: _29  and  _30
REMARK   15  A    between atoms: _35  and  _37
REMARK   16  A    between atoms: _37  and  _38
REMARK   17  A    between atoms: _37  and  _40
REMARK   18  A    between atoms: _43  and  _45
REMARK   19  A    between atoms: _45  and  _46
REMARK   20  A    between atoms: _45  and  _48
REMARK   21  A    between atoms: _48  and  _49
REMARK   22  A    between atoms: _52  and  _54
REMARK   23  A    between atoms: _54  and  _55
REMARK   24  A    between atoms: _54  and  _57
REMARK   25  A    between atoms: _57  and  _58
REMARK   26  A    between atoms: _61  and  _63
REMARK   27  A    between atoms: _63  and  _64
REMARK   28  A    between atoms: _66  and  _68
REMARK   29  A    between atoms: _68  and  _69
REMARK   30  A    between atoms: _68  and  _71
REMARK   31  A    between atoms: _71  and  _72
REMARK   32  A    between atoms: _72  and  _73
REMARK   33  A    between atoms: _73  and  _74
REMARK   34  A    between atoms: _74  and  _75
REMARK   35  A    between atoms: _79  and  _81
REMARK   36  A    between atoms: _81  and  _82
REMARK   37  A    between atoms: _81  and  _84
REMARK   38  A    between atoms: _84  and  _85
REMARK   39  A    between atoms: _88  and  _90
REMARK   40  A    between atoms: _90  and  _91
REMARK   41  A    between atoms: _90  and  _93
REMARK   42  A    between atoms: _93  and  _94
REMARK   43  A    between atoms: _94  and  _95
REMARK   44  A    between atoms: _95  and  _96
REMARK   45  A    between atoms: _96  and  _97
REMARK   46  A    between atoms: _101  and  _103
REMARK   47  A    between atoms: _103  and  _104
REMARK   48  A    between atoms: _103  and  _106
REMARK   49  A    between atoms: _106  and  _107
REMARK   50  A    between atoms: _110  and  _112
REMARK   51  A    between atoms: _112  and  _113
REMARK   52  A    between atoms: _112  and  _115
REMARK   53  A    between atoms: _115  and  _116
REMARK   54  A    between atoms: _119  and  _121
REMARK   55  A    between atoms: _121  and  _122
REMARK   56  A    between atoms: _121  and  _124
REMARK   57  A    between atoms: _124  and  _125
REMARK   58  A    between atoms: _128  and  _130
REMARK   59  A    between atoms: _130  and  _131
REMARK   60  A    between atoms: _130  and  _133
REMARK   61  A    between atoms: _133  and  _134
REMARK   62  A    between atoms: _134  and  _135
REMARK   63  A    between atoms: _135  and  _136
REMARK   64  A    between atoms: _136  and  _137
REMARK   65  A    between atoms: _141  and  _143
REMARK   66  A    between atoms: _143  and  _144
REMARK   67  A    between atoms: _143  and  _146
REMARK   68  A    between atoms: _146  and  _147
REMARK   69  A    between atoms: _147  and  _148
REMARK   70  A    between atoms: _148  and  _149
REMARK   71  A    between atoms: _158  and  _160
REMARK   72  A    between atoms: _160  and  _161
REMARK   73  A    between atoms: _160  and  _163
REMARK   74  A    between atoms: _166  and  _168
REMARK   75  A    between atoms: _168  and  _169
REMARK   76  A    between atoms: _168  and  _171
REMARK   77  A    between atoms: _171  and  _172
REMARK   78  A    between atoms: _172  and  _173
REMARK   79  A    between atoms: _178  and  _180
REMARK   80  A    between atoms: _180  and  _181
REMARK   81  A    between atoms: _180  and  _183
REMARK   82  A    between atoms: _183  and  _184
REMARK   83  A    between atoms: _184  and  _185
REMARK   84  A    between atoms: _188  and  _190
REMARK   85  A    between atoms: _190  and  _191
REMARK   86  A    between atoms: _190  and  _193
REMARK   87  A    between atoms: _193  and  _194
REMARK   88  A    between atoms: _194  and  _195
REMARK   89  A    between atoms: _198  and  _200
REMARK   90  A    between atoms: _200  and  _201
REMARK   91  A    between atoms: _204  and  _206
REMARK   92  A    between atoms: _206  and  _207
REMARK   93  A    between atoms: _209  and  _211
REMARK   94  A    between atoms: _211  and  _212
REMARK   95  A    between atoms: _212  and  _213
REMARK   96  A    between atoms: _212  and  _214
REMARK   97  A    between atoms: _214  and  _216
REMARK   98  A    between atoms: _216  and  _217
REMARK   99  A    between atoms: _216  and  _219
REMARK  100  A    between atoms: _219  and  _220
REMARK  101  A    between atoms: _223  and  _225
REMARK  102  A    between atoms: _225  and  _226
REMARK  103  A    between atoms: _225  and  _228
REMARK  104  A    between atoms: _228  and  _229
REMARK  105  A    between atoms: _232  and  _234
REMARK  106  A    between atoms: _234  and  _235
REMARK  107  A    between atoms: _234  and  _237
REMARK  108  A    between atoms: _237  and  _238
REMARK  109  A    between atoms: _238  and  _239
REMARK  110  A    between atoms: _244  and  _246
REMARK  111  A    between atoms: _246  and  _247
REMARK  112  A    between atoms: _246  and  _249
REMARK  113  A    between atoms: _249  and  _250
REMARK  114  A    between atoms: _250  and  _251
REMARK  115  A    between atoms: _256  and  _258
REMARK  116  A    between atoms: _258  and  _259
REMARK  117  A    between atoms: _258  and  _261
REMARK  118  A    between atoms: _261  and  _262
REMARK  119  A    between atoms: _265  and  _267
REMARK  120  A    between atoms: _267  and  _268
REMARK  121  A    between atoms: _267  and  _270
REMARK  122  A    between atoms: _270  and  _271
REMARK  123  A    between atoms: _275  and  _276
REMARK  124  A    between atoms: _281  and  _283
REMARK  125  A    between atoms: _283  and  _284
REMARK  126  A    between atoms: _286  and  _288
REMARK  127  A    between atoms: _288  and  _289
REMARK  128  A    between atoms: _288  and  _291
REMARK  129  A    between atoms: _291  and  _292
REMARK  130  A    between atoms: _297  and  _299
REMARK  131  A    between atoms: _299  and  _300
REMARK  132  A    between atoms: _299  and  _302
REMARK  133  A    between atoms: _302  and  _303
REMARK  134  A    between atoms: _303  and  _304
REMARK  135  A    between atoms: _307  and  _309
REMARK  136  A    between atoms: _309  and  _310
REMARK  137  A    between atoms: _309  and  _312
REMARK  138  A    between atoms: _312  and  _313
REMARK  139  A    between atoms: _319  and  _321
REMARK  140  A    between atoms: _321  and  _322
REMARK  141  A    between atoms: _321  and  _324
REMARK  142  A    between atoms: _324  and  _325
REMARK  143  A    between atoms: _325  and  _326
REMARK  144  A    between atoms: _326  and  _327
REMARK  145  A    between atoms: _336  and  _338
REMARK  146  A    between atoms: _338  and  _339
REMARK  147  A    between atoms: _338  and  _341
REMARK  148  A    between atoms: _344  and  _346
REMARK  149  A    between atoms: _346  and  _347
REMARK  150  A    between atoms: _346  and  _349
REMARK  151  A    between atoms: _349  and  _350
REMARK  152  A    between atoms: _353  and  _355
REMARK  153  A    between atoms: _355  and  _356
REMARK  154  A    between atoms: _355  and  _358
REMARK  155  A    between atoms: _358  and  _359
REMARK  156  A    between atoms: _362  and  _364
REMARK  157  A    between atoms: _364  and  _365
REMARK  158  A    between atoms: _364  and  _367
REMARK  159  A    between atoms: _367  and  _368
REMARK  160  A    between atoms: _368  and  _369
REMARK  161  A    between atoms: _371  and  _373
REMARK  162  A    between atoms: _373  and  _374
REMARK  163  A    between atoms: _373  and  _376
REMARK  164  A    between atoms: _376  and  _377
REMARK  165  A    between atoms: _377  and  _378
REMARK  166  A    between atoms: _383  and  _385
REMARK  167  A    between atoms: _385  and  _386
REMARK  168  A    between atoms: _385  and  _388
REMARK  169  A    between atoms: _388  and  _389
REMARK  170  A    between atoms: _392  and  _394
REMARK  171  A    between atoms: _394  and  _395
REMARK  172  A    between atoms: _394  and  _397
REMARK  173  A    between atoms: _397  and  _398
REMARK  174  A    between atoms: _403  and  _405
REMARK  175  A    between atoms: _405  and  _406
REMARK  176  A    between atoms: _405  and  _408
REMARK  177  A    between atoms: _408  and  _409
REMARK  178  A    between atoms: _409  and  _410
REMARK  179  A    between atoms: _410  and  _411
REMARK  180  A    between atoms: _411  and  _412
REMARK  181  A    between atoms: _416  and  _418
REMARK  182  A    between atoms: _418  and  _419
REMARK  183  A    between atoms: _418  and  _421
REMARK  184  A    between atoms: _421  and  _422
REMARK  185  A    between atoms: _425  and  _427
REMARK  186  A    between atoms: _427  and  _428
REMARK  187  A    between atoms: _427  and  _430
REMARK  188  A    between atoms: _430  and  _431
REMARK  189  A    between atoms: _434  and  _436
REMARK  190  A    between atoms: _436  and  _437
REMARK  191  A    between atoms: _436  and  _439
REMARK  192  A    between atoms: _439  and  _440
REMARK  193  A    between atoms: _440  and  _441
REMARK  194  A    between atoms: _441  and  _442
REMARK  195  A    between atoms: _451  and  _453
REMARK  196  A    between atoms: _453  and  _454
REMARK  197  A    between atoms: _453  and  _456
REMARK  198  A    between atoms: _456  and  _457
REMARK  199  A    between atoms: _460  and  _462
REMARK  200  A    between atoms: _462  and  _463
REMARK  201  A    between atoms: _462  and  _465
REMARK  202  A    between atoms: _465  and  _466
REMARK  203  A    between atoms: _469  and  _471
REMARK  204  A    between atoms: _471  and  _472
REMARK  205  A    between atoms: _471  and  _474
REMARK  206  A    between atoms: _474  and  _475
REMARK  207  A    between atoms: _477  and  _479
REMARK  208  A    between atoms: _479  and  _480
REMARK  209  A    between atoms: _483  and  _485
REMARK  210  A    between atoms: _485  and  _486
REMARK  211  A    between atoms: _485  and  _488
REMARK  212  A    between atoms: _488  and  _489
REMARK  213  A    between atoms: _494  and  _496
REMARK  214  A    between atoms: _496  and  _497
REMARK  215  A    between atoms: _496  and  _499
REMARK  216  A    between atoms: _499  and  _500
REMARK  217  A    between atoms: _503  and  _505
REMARK  218  A    between atoms: _505  and  _506
REMARK  219  A    between atoms: _508  and  _510
REMARK  220  A    between atoms: _510  and  _511
REMARK  221  A    between atoms: _510  and  _513
REMARK  222  A    between atoms: _513  and  _514
REMARK  223  A    between atoms: _514  and  _515
REMARK  224  A    between atoms: _518  and  _520
REMARK  225  A    between atoms: _520  and  _521
REMARK  226  A    between atoms: _520  and  _523
REMARK  227  A    between atoms: _523  and  _524
REMARK  228  A    between atoms: _527  and  _529
REMARK  229  A    between atoms: _529  and  _530
REMARK  230  A    between atoms: _529  and  _532
REMARK  231  A    between atoms: _532  and  _533
REMARK  232  A    between atoms: _533  and  _534
REMARK  233  A    between atoms: _534  and  _535
REMARK                            x       y       z     vdW  Elec       q    Type
REMARK                         _______ _______ _______ _____ _____    ______ ____
ROOT
ATOM      1  NE  ARG A   1       1.046  16.769   8.632  0.00  0.00    -0.265 N 
ATOM      2  CZ  ARG A   1       0.159  16.051   9.320  0.00  0.00    +0.342 C 
ATOM      3  NH2 ARG A   1       0.519  15.364  10.415  0.00  0.00    -0.292 N 
ATOM      4 HH21 ARG A   1      -0.189  14.810  10.937  0.00  0.00    +0.255 HD
ATOM      5 HH22 ARG A   1       1.506  15.386  10.741  0.00  0.00    +0.255 HD
ATOM      6  NH1 ARG A   1      -1.105  16.053   8.940  0.00  0.00    -0.292 N 
ATOM      7 HH11 ARG A   1      -1.808  15.497   9.468  0.00  0.00    +0.255 HD
ATOM      8 HH12 ARG A   1      -1.398  16.611   8.113  0.00  0.00    +0.255 HD
ATOM      9  HE  ARG A   1       0.713  17.281   7.790  0.00  0.00    +0.259 HD
ENDROOT
BRANCH   1  10
ATOM     10  CD  ARG A   1       2.459  16.880   8.989  0.00  0.00    +0.174 C 
BRANCH  10  11
ATOM     11  CG  ARG A   1       2.742  18.345   9.562  0.00  0.00    +0.045 C 
BRANCH  11  12
ATOM     12  CB  ARG A   1       2.676  19.283   8.358  0.00  0.00    +0.029 C 
BRANCH  12  13
ATOM     13  CA  ARG A   1       3.091  20.746   8.616  0.00  0.00    +0.133 C 
BRANCH  13  14
ATOM     14  N   ARG A   1       2.168  21.406   9.548  0.00  0.00    -0.239 NA
ATOM     15  H   ARG A   1       1.287  20.926   9.820  0.00  0.00    +0.142 HD
ENDBRANCH  13  14
BRANCH  13  16
ATOM     16  C   ARG A   1       3.165  21.472   7.249  0.00  0.00    +0.224 C 
ATOM     17  O   ARG A   1       4.170  21.378   6.529  0.00  0.00    -0.287 OA
ENDBRANCH  13  16
ENDBRANCH  12  13
ENDBRANCH  11  12
ENDBRANCH  10  11
ENDBRANCH   1  10
TORSDOF 6
REMARK  Name = ../refined-set-2016/4ncn/4ncn_pocket.pdb
REMARK  233 active torsions:
REMARK  status: ('A' for Active; 'I' for Inactive)
REMARK    1  A    between atoms: _1  and  _3
REMARK    2  A    between atoms: _3  and  _4
REMARK    3  A    between atoms: _3  and  _6
REMARK    4  A    between atoms: _6  and  _7
REMARK    5  A    between atoms: _10  and  _12
REMARK    6  A    between atoms: _12  and  _13
REMARK    7  A    between atoms: _12  and  _15
REMARK    8  A    between atoms: _15  and  _16
REMARK    9  A    between atoms: _19  and  _21
REMARK   10  A    between atoms: _21  and  _22
REMARK   11  A    between atoms: _24  and  _26
REMARK   12  A    between atoms: _26  and  _27
REMARK   13  A    between atoms: _26  and  _29
REMARK   14  A    between atoms: _29  and  _30
REMARK   15  A    between atoms: _35  and  _37
REMARK   16  A    between atoms: _37  and  _38
REMARK   17  A    between atoms: _37  and  _40
REMARK   18  A    between atoms: _43  and  _45
REMARK   19  A    between atoms: _45  and  _46
REMARK   20  A    between atoms: _45  and  _48
REMARK   21  A    between atoms: _48  and  _49
REMARK   22  A    between atoms: _52  and  _54
REMARK   23  A    between atoms: _54  and  _55
REMARK   24  A    between atoms: _54  and  _57
REMARK   25  A    between atoms: _57  and  _58
REMARK   26  A    between atoms: _61  and  _63
REMARK   27  A    between atoms: _63  and  _64
REMARK   28  A    between atoms: _66  and  _68
REMARK   29  A    between atoms: _68  and  _69
REMARK   30  A    between atoms: _68  and  _71
REMARK   31  A    between atoms: _71  and  _72
REMARK   32  A    between atoms: _72  and  _73
REMARK   33  A    between atoms: _73  and  _74
REMARK   34  A    between atoms: _74  and  _75
REMARK   35  A    between atoms: _79  and  _81
REMARK   36  A    between atoms: _81  and  _82
REMARK   37  A    between atoms: _81  and  _84
REMARK   38  A    between atoms: _84  and  _85
REMARK   39  A    between atoms: _88  and  _90
REMARK   40  A    between atoms: _90  and  _91
REMARK   41  A    between atoms: _90  and  _93
REMARK   42  A    between atoms: _93  and  _94
REMARK   43  A    between atoms: _94  and  _95
REMARK   44  A    between atoms: _95  and  _96
REMARK   45  A    between atoms: _96  and  _97
REMARK   46  A    between atoms: _101  and  _103
REMARK   47  A    between atoms: _103  and  _104
REMARK   48  A    between atoms: _103  and  _106
REMARK   49  A    between atoms: _106  and  _107
REMARK   50  A    between atoms: _110  and  _112
REMARK   51  A    between atoms: _112  and  _113
REMARK   52  A    between atoms: _112  and  _115
REMARK   53  A    between atoms: _115  and  _116
REMARK   54  A    between atoms: _119  and  _121
REMARK   55  A    between atoms: _121  and  _122
REMARK   56  A    between atoms: _121  and  _124
REMARK   57  A    between atoms: _124  and  _125
REMARK   58  A    between atoms: _128  and  _130
REMARK   59  A    between atoms: _130  and  _131
REMARK   60  A    between atoms: _130  and  _133
REMARK   61  A    between atoms: _133  and  _134
REMARK   62  A    between atoms: _134  and  _135
REMARK   63  A    between atoms: _135  and  _136
REMARK   64  A    between atoms: _136  and  _137
REMARK   65  A    between atoms: _141  and  _143
REMARK   66  A    between atoms: _143  and  _144
REMARK   67  A    between atoms: _143  and  _146
REMARK   68  A    between atoms: _146  and  _147
REMARK   69  A    between atoms: _147  and  _148
REMARK   70  A    between atoms: _148  and  _149
REMARK   71  A    between atoms: _158  and  _160
REMARK   72  A    between atoms: _160  and  _161
REMARK   73  A    between atoms: _160  and  _163
REMARK   74  A    between atoms: _166  and  _168
REMARK   75  A    between atoms: _168  and  _169
REMARK   76  A    between atoms: _168  and  _171
REMARK   77  A    between atoms: _171  and  _172
REMARK   78  A    between atoms: _172  and  _173
REMARK   79  A    between atoms: _178  and  _180
REMARK   80  A    between atoms: _180  and  _181
REMARK   81  A    between atoms: _180  and  _183
REMARK   82  A    between atoms: _183  and  _184
REMARK   83  A    between atoms: _184  and  _185
REMARK   84  A    between atoms: _188  and  _190
REMARK   85  A    between atoms: _190  and  _191
REMARK   86  A    between atoms: _190  and  _193
REMARK   87  A    between atoms: _193  and  _194
REMARK   88  A    between atoms: _194  and  _195
REMARK   89  A    between atoms: _198  and  _200
REMARK   90  A    between atoms: _200  and  _201
REMARK   91  A    between atoms: _204  and  _206
REMARK   92  A    between atoms: _206  and  _207
REMARK   93  A    between atoms: _209  and  _211
REMARK   94  A    between atoms: _211  and  _212
REMARK   95  A    between atoms: _212  and  _213
REMARK   96  A    between atoms: _212  and  _214
REMARK   97  A    between atoms: _214  and  _216
REMARK   98  A    between atoms: _216  and  _217
REMARK   99  A    between atoms: _216  and  _219
REMARK  100  A    between atoms: _219  and  _220
REMARK  101  A    between atoms: _223  and  _225
REMARK  102  A    between atoms: _225  and  _226
REMARK  103  A    between atoms: _225  and  _228
REMARK  104  A    between atoms: _228  and  _229
REMARK  105  A    between atoms: _232  and  _234
REMARK  106  A    between atoms: _234  and  _235
REMARK  107  A    between atoms: _234  and  _237
REMARK  108  A    between atoms: _237  and  _238
REMARK  109  A    between atoms: _238  and  _239
REMARK  110  A    between atoms: _244  and  _246
REMARK  111  A    between atoms: _246  and  _247
REMARK  112  A    between atoms: _246  and  _249
REMARK  113  A    between atoms: _249  and  _250
REMARK  114  A    between atoms: _250  and  _251
REMARK  115  A    between atoms: _256  and  _258
REMARK  116  A    between atoms: _258  and  _259
REMARK  117  A    between atoms: _258  and  _261
REMARK  118  A    between atoms: _261  and  _262
REMARK  119  A    between atoms: _265  and  _267
REMARK  120  A    between atoms: _267  and  _268
REMARK  121  A    between atoms: _267  and  _270
REMARK  122  A    between atoms: _270  and  _271
REMARK  123  A    between atoms: _275  and  _276
REMARK  124  A    between atoms: _281  and  _283
REMARK  125  A    between atoms: _283  and  _284
REMARK  126  A    between atoms: _286  and  _288
REMARK  127  A    between atoms: _288  and  _289
REMARK  128  A    between atoms: _288  and  _291
REMARK  129  A    between atoms: _291  and  _292
REMARK  130  A    between atoms: _297  and  _299
REMARK  131  A    between atoms: _299  and  _300
REMARK  132  A    between atoms: _299  and  _302
REMARK  133  A    between atoms: _302  and  _303
REMARK  134  A    between atoms: _303  and  _304
REMARK  135  A    between atoms: _307  and  _309
REMARK  136  A    between atoms: _309  and  _310
REMARK  137  A    between atoms: _309  and  _312
REMARK  138  A    between atoms: _312  and  _313
REMARK  139  A    between atoms: _319  and  _321
REMARK  140  A    between atoms: _321  and  _322
REMARK  141  A    between atoms: _321  and  _324
REMARK  142  A    between atoms: _324  and  _325
REMARK  143  A    between atoms: _325  and  _326
REMARK  144  A    between atoms: _326  and  _327
REMARK  145  A    between atoms: _336  and  _338
REMARK  146  A    between atoms: _338  and  _339
REMARK  147  A    between atoms: _338  and  _341
REMARK  148  A    between atoms: _344  and  _346
REMARK  149  A    between atoms: _346  and  _347
REMARK  150  A    between atoms: _346  and  _349
REMARK  151  A    between atoms: _349  and  _350
REMARK  152  A    between atoms: _353  and  _355
REMARK  153  A    between atoms: _355  and  _356
REMARK  154  A    between atoms: _355  and  _358
REMARK  155  A    between atoms: _358  and  _359
REMARK  156  A    between atoms: _362  and  _364
REMARK  157  A    between atoms: _364  and  _365
REMARK  158  A    between atoms: _364  and  _367
REMARK  159  A    between atoms: _367  and  _368
REMARK  160  A    between atoms: _368  and  _369
REMARK  161  A    between atoms: _371  and  _373
REMARK  162  A    between atoms: _373  and  _374
REMARK  163  A    between atoms: _373  and  _376
REMARK  164  A    between atoms: _376  and  _377
REMARK  165  A    between atoms: _377  and  _378
REMARK  166  A    between atoms: _383  and  _385
REMARK  167  A    between atoms: _385  and  _386
REMARK  168  A    between atoms: _385  and  _388
REMARK  169  A    between atoms: _388  and  _389
REMARK  170  A    between atoms: _392  and  _394
REMARK  171  A    between atoms: _394  and  _395
REMARK  172  A    between atoms: _394  and  _397
REMARK  173  A    between atoms: _397  and  _398
REMARK  174  A    between atoms: _403  and  _405
REMARK  175  A    between atoms: _405  and  _406
REMARK  176  A    between atoms: _405  and  _408
REMARK  177  A    between atoms: _408  and  _409
REMARK  178  A    between atoms: _409  and  _410
REMARK  179  A    between atoms: _410  and  _411
REMARK  180  A    between atoms: _411  and  _412
REMARK  181  A    between atoms: _416  and  _418
REMARK  182  A    between atoms: _418  and  _419
REMARK  183  A    between atoms: _418  and  _421
REMARK  184  A    between atoms: _421  and  _422
REMARK  185  A    between atoms: _425  and  _427
REMARK  186  A    between atoms: _427  and  _428
REMARK  187  A    between atoms: _427  and  _430
REMARK  188  A    between atoms: _430  and  _431
REMARK  189  A    between atoms: _434  and  _436
REMARK  190  A    between atoms: _436  and  _437
REMARK  191  A    between atoms: _436  and  _439
REMARK  192  A    between atoms: _439  and  _440
REMARK  193  A    between atoms: _440  and  _441
REMARK  194  A    between atoms: _441  and  _442
REMARK  195  A    between atoms: _451  and  _453
REMARK  196  A    between atoms: _453  and  _454
REMARK  197  A    between atoms: _453  and  _456
REMARK  198  A    between atoms: _456  and  _457
REMARK  199  A    between atoms: _460  and  _462
REMARK  200  A    between atoms: _462  and  _463
REMARK  201  A    between atoms: _462  and  _465
REMARK  202  A    between atoms: _465  and  _466
REMARK  203  A    between atoms: _469  and  _471
REMARK  204  A    between atoms: _471  and  _472
REMARK  205  A    between atoms: _471  and  _474
REMARK  206  A    between atoms: _474  and  _475
REMARK  207  A    between atoms: _477  and  _479
REMARK  208  A    between atoms: _479  and  _480
REMARK  209  A    between atoms: _483  and  _485
REMARK  210  A    between atoms: _485  and  _486
REMARK  211  A    between atoms: _485  and  _488
REMARK  212  A    between atoms: _488  and  _489
REMARK  213  A    between atoms: _494  and  _496
REMARK  214  A    between atoms: _496  and  _497
REMARK  215  A    between atoms: _496  and  _499
REMARK  216  A    between atoms: _499  and  _500
REMARK  217  A    between atoms: _503  and  _505
REMARK  218  A    between atoms: _505  and  _506
REMARK  219  A    between atoms: _508  and  _510
REMARK  220  A    between atoms: _510  and  _511
REMARK  221  A    between atoms: _510  and  _513
REMARK  222  A    between atoms: _513  and  _514
REMARK  223  A    between atoms: _514  and  _515
REMARK  224  A    between atoms: _518  and  _520
REMARK  225  A    between atoms: _520  and  _521
REMARK  226  A    between atoms: _520  and  _523
REMARK  227  A    between atoms: _523  and  _524
REMARK  228  A    between atoms: _527  and  _529
REMARK  229  A    between atoms: _529  and  _530
REMARK  230  A    between atoms: _529  and  _532
REMARK  231  A    between atoms: _532  and  _533
REMARK  232  A    between atoms: _533  and  _534
REMARK  233  A    between atoms: _534  and  _535
REMARK                            x       y       z     vdW  Elec       q    Type
REMARK                         _______ _______ _______ _____ _____    ______ ____
ROOT
ATOM      1  CA  GLN A   2      -7.115  15.480   5.594  0.00  0.00    +0.149 C 
ENDROOT
BRANCH   1   3
ATOM      2  C   VAL A   1      -5.016  14.693   4.657  0.00  0.00    +0.238 C 
ATOM      3  N   GLN A   2      -5.666  15.630   5.342  0.00  0.00    -0.297 N 
ATOM      4  H   GLN A   2      -5.157  16.464   5.699  0.00  0.00    +0.150 HD
ATOM      5  O   VAL A   1      -5.621  13.770   4.099  0.00  0.00    -0.274 OA
BRANCH   2   6
ATOM      6  CA  VAL A   1      -3.500  14.838   4.549  0.00  0.00    +0.145 C 
BRANCH   6   7
ATOM      7  CB  VAL A   1      -2.844  14.356   5.866  0.00  0.00    +0.025 C 
ATOM      8  CG2 VAL A   1      -3.379  12.922   6.270  0.00  0.00    +0.002 C 
ATOM      9  CG1 VAL A   1      -1.313  14.428   5.697  0.00  0.00    +0.002 C 
ENDBRANCH   6   7
BRANCH   6  10
ATOM     10  N   VAL A   1      -3.111  16.230   4.257  0.00  0.00    -0.238 NA
ATOM     11  H   VAL A   1      -2.506  16.749   4.925  0.00  0.00    +0.142 HD
ENDBRANCH   6  10
ENDBRANCH   2   6
ENDBRANCH   1   3
BRANCH   1  12
ATOM     12  C   GLN A   2      -7.868  15.395   4.297  0.00  0.00    +0.241 C 
ATOM     13  O   GLN A   2      -8.871  14.630   4.176  0.00  0.00    -0.273 OA
ATOM     14  N   GLU A   3      -7.450  16.185   3.297  0.00  0.00    -0.298 N 
ATOM     15  H   GLU A   3      -6.633  16.818   3.414  0.00  0.00    +0.150 HD
BRANCH  14  16
ATOM     16  CA  GLU A   3      -8.185  16.121   2.042  0.00  0.00    +0.137 C 
BRANCH  16  17
ATOM     17  C   GLU A   3      -8.077  14.792   1.341  0.00  0.00    +0.227 C 
ATOM     18  O   GLU A   3      -8.929  14.494   0.498  0.00  0.00    -0.286 OA
ENDBRANCH  16  17
BRANCH  16  19
ATOM     19  CB  GLU A   3      -7.766  17.205   1.053  0.00  0.00    +0.039 C 
BRANCH  19  20
ATOM     20  CG  GLU A   3      -8.642  18.393   1.141  0.00  0.00    +0.116 C 
BRANCH  20  21
ATOM     21  CD  GLU A   3      -7.898  19.575   1.589  0.00  0.00    +0.365 C 
ATOM     22  OE2 GLU A   3      -7.317  19.464   2.691  0.00  0.00    -0.246 OA
ATOM     23  OE1 GLU A   3      -7.879  20.587   0.843  0.00  0.00    -0.246 OA
ENDBRANCH  20  21
ENDBRANCH  19  20
ENDBRANCH  16  19
ENDBRANCH  14  16
ENDBRANCH   1  12
BRANCH   1  24
ATOM     24  CB  GLN A   2      -7.660  16.663   6.430  0.00  0.00    +0.039 C 
BRANCH  24  25
ATOM     25  CG  GLN A   2      -9.020  16.416   7.082  0.00  0.00    +0.087 C 
BRANCH  25  26
ATOM     26  CD  GLN A   2     -10.205  16.676   6.197  0.00  0.00    +0.219 C 
ATOM     27  NE2 GLN A   2     -11.378  16.086   6.557  0.00  0.00    -0.329 N 
ATOM     28 HE21 GLN A   2     -11.407  15.441   7.372  0.00  0.00    +0.145 HD
ATOM     29 HE22 GLN A   2     -12.245  16.280   6.017  0.00  0.00    +0.145 HD
ATOM     30  OE1 GLN A   2     -10.114  17.442   5.248  0.00  0.00    -0.275 OA
ENDBRANCH  25  26
ENDBRANCH  24  25
ENDBRANCH   1  24
TORSDOF 13
REMARK  Name = ../refined-set-2016/4ncn/4ncn_pocket.pdb
REMARK  233 active torsions:
REMARK  status: ('A' for Active; 'I' for Inactive)
REMARK    1  A    between atoms: _1  and  _3
REMARK    2  A    between atoms: _3  and  _4
REMARK    3  A    between atoms: _3  and  _6
REMARK    4  A    between atoms: _6  and  _7
REMARK    5  A    between atoms: _10  and  _12
REMARK    6  A    between atoms: _12  and  _13
REMARK    7  A    between atoms: _12  and  _15
REMARK    8  A    between atoms: _15  and  _16
REMARK    9  A    between atoms: _19  and  _21
REMARK   10  A    between atoms: _21  and  _22
REMARK   11  A    between atoms: _24  and  _26
REMARK   12  A    between atoms: _26  and  _27
REMARK   13  A    between atoms: _26  and  _29
REMARK   14  A    between atoms: _29  and  _30
REMARK   15  A    between atoms: _35  and  _37
REMARK   16  A    between atoms: _37  and  _38
REMARK   17  A    between atoms: _37  and  _40
REMARK   18  A    between atoms: _43  and  _45
REMARK   19  A    between atoms: _45  and  _46
REMARK   20  A    between atoms: _45  and  _48
REMARK   21  A    between atoms: _48  and  _49
REMARK   22  A    between atoms: _52  and  _54
REMARK   23  A    between atoms: _54  and  _55
REMARK   24  A    between atoms: _54  and  _57
REMARK   25  A    between atoms: _57  and  _58
REMARK   26  A    between atoms: _61  and  _63
REMARK   27  A    between atoms: _63  and  _64
REMARK   28  A    between atoms: _66  and  _68
REMARK   29  A    between atoms: _68  and  _69
REMARK   30  A    between atoms: _68  and  _71
REMARK   31  A    between atoms: _71  and  _72
REMARK   32  A    between atoms: _72  and  _73
REMARK   33  A    between atoms: _73  and  _74
REMARK   34  A    between atoms: _74  and  _75
REMARK   35  A    between atoms: _79  and  _81
REMARK   36  A    between atoms: _81  and  _82
REMARK   37  A    between atoms: _81  and  _84
REMARK   38  A    between atoms: _84  and  _85
REMARK   39  A    between atoms: _88  and  _90
REMARK   40  A    between atoms: _90  and  _91
REMARK   41  A    between atoms: _90  and  _93
REMARK   42  A    between atoms: _93  and  _94
REMARK   43  A    between atoms: _94  and  _95
REMARK   44  A    between atoms: _95  and  _96
REMARK   45  A    between atoms: _96  and  _97
REMARK   46  A    between atoms: _101  and  _103
REMARK   47  A    between atoms: _103  and  _104
REMARK   48  A    between atoms: _103  and  _106
REMARK   49  A    between atoms: _106  and  _107
REMARK   50  A    between atoms: _110  and  _112
REMARK   51  A    between atoms: _112  and  _113
REMARK   52  A    between atoms: _112  and  _115
REMARK   53  A    between atoms: _115  and  _116
REMARK   54  A    between atoms: _119  and  _121
REMARK   55  A    between atoms: _121  and  _122
REMARK   56  A    between atoms: _121  and  _124
REMARK   57  A    between atoms: _124  and  _125
REMARK   58  A    between atoms: _128  and  _130
REMARK   59  A    between atoms: _130  and  _131
REMARK   60  A    between atoms: _130  and  _133
REMARK   61  A    between atoms: _133  and  _134
REMARK   62  A    between atoms: _134  and  _135
REMARK   63  A    between atoms: _135  and  _136
REMARK   64  A    between atoms: _136  and  _137
REMARK   65  A    between atoms: _141  and  _143
REMARK   66  A    between atoms: _143  and  _144
REMARK   67  A    between atoms: _143  and  _146
REMARK   68  A    between atoms: _146  and  _147
REMARK   69  A    between atoms: _147  and  _148
REMARK   70  A    between atoms: _148  and  _149
REMARK   71  A    between atoms: _158  and  _160
REMARK   72  A    between atoms: _160  and  _161
REMARK   73  A    between atoms: _160  and  _163
REMARK   74  A    between atoms: _166  and  _168
REMARK   75  A    between atoms: _168  and  _169
REMARK   76  A    between atoms: _168  and  _171
REMARK   77  A    between atoms: _171  and  _172
REMARK   78  A    between atoms: _172  and  _173
REMARK   79  A    between atoms: _178  and  _180
REMARK   80  A    between atoms: _180  and  _181
REMARK   81  A    between atoms: _180  and  _183
REMARK   82  A    between atoms: _183  and  _184
REMARK   83  A    between atoms: _184  and  _185
REMARK   84  A    between atoms: _188  and  _190
REMARK   85  A    between atoms: _190  and  _191
REMARK   86  A    between atoms: _190  and  _193
REMARK   87  A    between atoms: _193  and  _194
REMARK   88  A    between atoms: _194  and  _195
REMARK   89  A    between atoms: _198  and  _200
REMARK   90  A    between atoms: _200  and  _201
REMARK   91  A    between atoms: _204  and  _206
REMARK   92  A    between atoms: _206  and  _207
REMARK   93  A    between atoms: _209  and  _211
REMARK   94  A    between atoms: _211  and  _212
REMARK   95  A    between atoms: _212  and  _213
REMARK   96  A    between atoms: _212  and  _214
REMARK   97  A    between atoms: _214  and  _216
REMARK   98  A    between atoms: _216  and  _217
REMARK   99  A    between atoms: _216  and  _219
REMARK  100  A    between atoms: _219  and  _220
REMARK  101  A    between atoms: _223  and  _225
REMARK  102  A    between atoms: _225  and  _226
REMARK  103  A    between atoms: _225  and  _228
REMARK  104  A    between atoms: _228  and  _229
REMARK  105  A    between atoms: _232  and  _234
REMARK  106  A    between atoms: _234  and  _235
REMARK  107  A    between atoms: _234  and  _237
REMARK  108  A    between atoms: _237  and  _238
REMARK  109  A    between atoms: _238  and  _239
REMARK  110  A    between atoms: _244  and  _246
REMARK  111  A    between atoms: _246  and  _247
REMARK  112  A    between atoms: _246  and  _249
REMARK  113  A    between atoms: _249  and  _250
REMARK  114  A    between atoms: _250  and  _251
REMARK  115  A    between atoms: _256  and  _258
REMARK  116  A    between atoms: _258  and  _259
REMARK  117  A    between atoms: _258  and  _261
REMARK  118  A    between atoms: _261  and  _262
REMARK  119  A    between atoms: _265  and  _267
REMARK  120  A    between atoms: _267  and  _268
REMARK  121  A    between atoms: _267  and  _270
REMARK  122  A    between atoms: _270  and  _271
REMARK  123  A    between atoms: _275  and  _276
REMARK  124  A    between atoms: _281  and  _283
REMARK  125  A    between atoms: _283  and  _284
REMARK  126  A    between atoms: _286  and  _288
REMARK  127  A    between atoms: _288  and  _289
REMARK  128  A    between atoms: _288  and  _291
REMARK  129  A    between atoms: _291  and  _292
REMARK  130  A    between atoms: _297  and  _299
REMARK  131  A    between atoms: _299  and  _300
REMARK  132  A    between atoms: _299  and  _302
REMARK  133  A    between atoms: _302  and  _303
REMARK  134  A    between atoms: _303  and  _304
REMARK  135  A    between atoms: _307  and  _309
REMARK  136  A    between atoms: _309  and  _310
REMARK  137  A    between atoms: _309  and  _312
REMARK  138  A    between atoms: _312  and  _313
REMARK  139  A    between atoms: _319  and  _321
REMARK  140  A    between atoms: _321  and  _322
REMARK  141  A    between atoms: _321  and  _324
REMARK  142  A    between atoms: _324  and  _325
REMARK  143  A    between atoms: _325  and  _326
REMARK  144  A    between atoms: _326  and  _327
REMARK  145  A    between atoms: _336  and  _338
REMARK  146  A    between atoms: _338  and  _339
REMARK  147  A    between atoms: _338  and  _341
REMARK  148  A    between atoms: _344  and  _346
REMARK  149  A    between atoms: _346  and  _347
REMARK  150  A    between atoms: _346  and  _349
REMARK  151  A    between atoms: _349  and  _350
REMARK  152  A    between atoms: _353  and  _355
REMARK  153  A    between atoms: _355  and  _356
REMARK  154  A    between atoms: _355  and  _358
REMARK  155  A    between atoms: _358  and  _359
REMARK  156  A    between atoms: _362  and  _364
REMARK  157  A    between atoms: _364  and  _365
REMARK  158  A    between atoms: _364  and  _367
REMARK  159  A    between atoms: _367  and  _368
REMARK  160  A    between atoms: _368  and  _369
REMARK  161  A    between atoms: _371  and  _373
REMARK  162  A    between atoms: _373  and  _374
REMARK  163  A    between atoms: _373  and  _376
REMARK  164  A    between atoms: _376  and  _377
REMARK  165  A    between atoms: _377  and  _378
REMARK  166  A    between atoms: _383  and  _385
REMARK  167  A    between atoms: _385  and  _386
REMARK  168  A    between atoms: _385  and  _388
REMARK  169  A    between atoms: _388  and  _389
REMARK  170  A    between atoms: _392  and  _394
REMARK  171  A    between atoms: _394  and  _395
REMARK  172  A    between atoms: _394  and  _397
REMARK  173  A    between atoms: _397  and  _398
REMARK  174  A    between atoms: _403  and  _405
REMARK  175  A    between atoms: _405  and  _406
REMARK  176  A    between atoms: _405  and  _408
REMARK  177  A    between atoms: _408  and  _409
REMARK  178  A    between atoms: _409  and  _410
REMARK  179  A    between atoms: _410  and  _411
REMARK  180  A    between atoms: _411  and  _412
REMARK  181  A    between atoms: _416  and  _418
REMARK  182  A    between atoms: _418  and  _419
REMARK  183  A    between atoms: _418  and  _421
REMARK  184  A    between atoms: _421  and  _422
REMARK  185  A    between atoms: _425  and  _427
REMARK  186  A    between atoms: _427  and  _428
REMARK  187  A    between atoms: _427  and  _430
REMARK  188  A    between atoms: _430  and  _431
REMARK  189  A    between atoms: _434  and  _436
REMARK  190  A    between atoms: _436  and  _437
REMARK  191  A    between atoms: _436  and  _439
REMARK  192  A    between atoms: _439  and  _440
REMARK  193  A    between atoms: _440  and  _441
REMARK  194  A    between atoms: _441  and  _442
REMARK  195  A    between atoms: _451  and  _453
REMARK  196  A    between atoms: _453  and  _454
REMARK  197  A    between atoms: _453  and  _456
REMARK  198  A    between atoms: _456  and  _457
REMARK  199  A    between atoms: _460  and  _462
REMARK  200  A    between atoms: _462  and  _463
REMARK  201  A    between atoms: _462  and  _465
REMARK  202  A    between atoms: _465  and  _466
REMARK  203  A    between atoms: _469  and  _471
REMARK  204  A    between atoms: _471  and  _472
REMARK  205  A    between atoms: _471  and  _474
REMARK  206  A    between atoms: _474  and  _475
REMARK  207  A    between atoms: _477  and  _479
REMARK  208  A    between atoms: _479  and  _480
REMARK  209  A    between atoms: _483  and  _485
REMARK  210  A    between atoms: _485  and  _486
REMARK  211  A    between atoms: _485  and  _488
REMARK  212  A    between atoms: _488  and  _489
REMARK  213  A    between atoms: _494  and  _496
REMARK  214  A    between atoms: _496  and  _497
REMARK  215  A    between atoms: _496  and  _499
REMARK  216  A    between atoms: _499  and  _500
REMARK  217  A    between atoms: _503  and  _505
REMARK  218  A    between atoms: _505  and  _506
REMARK  219  A    between atoms: _508  and  _510
REMARK  220  A    between atoms: _510  and  _511
REMARK  221  A    between atoms: _510  and  _513
REMARK  222  A    between atoms: _513  and  _514
REMARK  223  A    between atoms: _514  and  _515
REMARK  224  A    between atoms: _518  and  _520
REMARK  225  A    between atoms: _520  and  _521
REMARK  226  A    between atoms: _520  and  _523
REMARK  227  A    between atoms: _523  and  _524
REMARK  228  A    between atoms: _527  and  _529
REMARK  229  A    between atoms: _529  and  _530
REMARK  230  A    between atoms: _529  and  _532
REMARK  231  A    between atoms: _532  and  _533
REMARK  232  A    between atoms: _533  and  _534
REMARK  233  A    between atoms: _534  and  _535
REMARK                            x       y       z     vdW  Elec       q    Type
REMARK                         _______ _______ _______ _____ _____    ______ ____
ROOT
ATOM      1  C   ILE A   1     -10.469   9.966   8.745  0.00  0.00    +0.000 C 
ATOM      2  N   THR A   2      -9.815  10.152   9.861  0.00  0.00    +0.000 N 
ATOM      3  H   THR A   2     -10.163  10.865  10.533  0.00  0.00    +0.000 HD
ATOM      4  O   ILE A   1     -10.052   9.248   7.835  0.00  0.00    +0.000 OA
ENDROOT
BRANCH   2   5
ATOM      5  CA  THR A   2      -8.605   9.390  10.200  0.00  0.00    +0.000 C 
BRANCH   5   6
ATOM      6  C   THR A   2      -8.996   7.965  10.637  0.00  0.00    +0.000 C 
ATOM      7  O   THR A   2      -9.924   7.791  11.424  0.00  0.00    +0.000 OA
ATOM      8  N   GLN A   3      -8.280   6.965  10.127  0.00  0.00    +0.000 N 
ATOM      9  H   GLN A   3      -7.490   7.178   9.485  0.00  0.00    +0.000 HD
BRANCH   8  10
ATOM     10  CA  GLN A   3      -8.584   5.575  10.452  0.00  0.00    +0.000 C 
BRANCH  10  11
ATOM     11  C   GLN A   3      -7.356   4.794  10.977  0.00  0.00    +0.000 C 
ATOM     12  O   GLN A   3      -7.450   3.600  11.229  0.00  0.00    +0.000 OA
ATOM     13  N   GLN A   4      -6.223   5.460  11.181  0.00  0.00    +0.000 N 
ATOM     14  H   GLN A   4      -6.143   6.459  10.904  0.00  0.00    +0.000 HD
BRANCH  13  15
ATOM     15  CA  GLN A   4      -5.084   4.767  11.803  0.00  0.00    +0.000 C 
BRANCH  15  16
ATOM     16  C   GLN A   4      -4.267   5.739  12.611  0.00  0.00    +0.000 C 
ATOM     17  O   GLN A   4      -4.480   6.984  12.525  0.00  0.00    +0.000 OA
ENDBRANCH  15  16
BRANCH  15  18
ATOM     18  CB  GLN A   4      -4.221   4.064  10.764  0.00  0.00    +0.000 C 
BRANCH  18  19
ATOM     19  CG  GLN A   4      -3.623   4.950   9.743  0.00  0.00    +0.000 C 
BRANCH  19  20
ATOM     20  CD  GLN A   4      -2.973   4.151   8.606  0.00  0.00    +0.000 C 
ATOM     21  OE1 GLN A   4      -1.913   3.528   8.780  0.00  0.00    +0.000 OA
ATOM     22  NE2 GLN A   4      -3.605   4.173   7.434  0.00  0.00    +0.000 N 
ATOM     23 HE21 GLN A   4      -4.491   4.708   7.331  0.00  0.00    +0.000 HD
ATOM     24 HE22 GLN A   4      -3.212   3.656   6.622  0.00  0.00    +0.000 HD
ENDBRANCH  19  20
ENDBRANCH  18  19
ENDBRANCH  15  18
ENDBRANCH  13  15
ENDBRANCH  10  11
BRANCH  10  25
ATOM     25  CB  GLN A   3      -9.167   4.899   9.215  0.00  0.00    +0.000 C 
BRANCH  25  26
ATOM     26  CG  GLN A   3     -10.493   5.537   8.771  0.00  0.00    +0.000 C 
BRANCH  26  27
ATOM     27  CD  GLN A   3     -11.126   4.699   7.649  0.00  0.00    +0.000 C 
ATOM     28  OE1 GLN A   3     -11.600   3.585   7.889  0.00  0.00    +0.000 OA
ATOM     29  NE2 GLN A   3     -11.095   5.217   6.421  0.00  0.00    +0.000 N 
ATOM     30 HE21 GLN A   3     -10.686   6.160   6.265  0.00  0.00    +0.000 HD
ATOM     31 HE22 GLN A   3     -11.480   4.678   5.619  0.00  0.00    +0.000 HD
ENDBRANCH  26  27
ENDBRANCH  25  26
ENDBRANCH  10  25
ENDBRANCH   8  10
ENDBRANCH   5   6
BRANCH   5  32
ATOM     32  CB  THR A   2      -7.864  10.142  11.283  0.00  0.00    +0.000 C 
ATOM     33  CG2 THR A   2      -6.536   9.431  11.703  0.00  0.00    +0.000 C 
BRANCH  32  34
ATOM     34  OG1 THR A   2      -7.540  11.464  10.790  0.00  0.00    +0.000 OA
ATOM     35  HG1 THR A   2      -7.054  11.966  11.491  0.00  0.00    +0.000 HD
ENDBRANCH  32  34
ENDBRANCH   5  32
ENDBRANCH   2   5
BRANCH   1  36
ATOM     36  CA  ILE A   1     -11.781  10.744   8.628  0.00  0.00    +0.000 C 
BRANCH  36  37
ATOM     37  CB  ILE A   1     -12.912   9.863   9.236  0.00  0.00    +0.000 C 
ATOM     38  CG2 ILE A   1     -14.248  10.621   9.386  0.00  0.00    +0.000 C 
BRANCH  37  39
ATOM     39  CG1 ILE A   1     -13.176   8.667   8.367  0.00  0.00    +0.000 C 
ATOM     40  CD1 ILE A   1     -13.995   7.555   9.147  0.00  0.00    +0.000 C 
ENDBRANCH  37  39
ENDBRANCH  36  37
BRANCH  36  41
ATOM     41  N   ILE A   1     -12.040  11.138   7.249  0.00  0.00    +0.000 NA
ATOM     42  H   ILE A   1     -12.030  10.439   6.479  0.00  0.00    +0.000 HD
BRANCH  41  43
ATOM     43  C   UNK A   0     -12.294  12.447   7.004  0.00  0.00    +0.000 C 
BRANCH  43  44
ATOM     44  O   UNK A   0     -12.285  13.291   7.901  0.00  0.00    +0.000 OA
ATOM     45 NA   UNK A   0     -12.356  13.818  10.107  0.00  0.00    +0.000 Na
ENDBRANCH  43  44
BRANCH  43  46
ATOM     46  C   UNK A   0     -12.574  12.884   5.580  0.00  0.00    +0.000 C 
BRANCH  46  49
ATOM     47  C   UNK A   0     -14.237  11.188   5.095  0.00  0.00    +0.000 C 
ATOM     48  O   UNK A   0     -15.008  11.662   5.935  0.00  0.00    +0.000 OA
ATOM     49  N   UNK A   0     -13.066  11.752   4.786  0.00  0.00    +0.000 N 
ATOM     50  H   UNK A   0     -12.506  11.391   3.987  0.00  0.00    +0.000 HD
BRANCH  47  51
ATOM     51  C   UNK A   0     -14.619   9.923   4.353  0.00  0.00    +0.000 C 
BRANCH  51  54
ATOM     52  C   UNK A   0     -12.486   8.996   3.818  0.00  0.00    +0.000 C 
ATOM     53  O   UNK A   0     -12.219   8.971   5.012  0.00  0.00    +0.000 OA
ATOM     54  N   UNK A   0     -13.620   9.520   3.375  0.00  0.00    +0.000 N 
ATOM     55  H   UNK A   0     -13.791   9.640   2.356  0.00  0.00    +0.000 HD
BRANCH  52  56
ATOM     56  C   UNK A   0     -11.495   8.468   2.775  0.00  0.00    +0.000 C 
ATOM     57  C   UNK A   0     -11.529   6.902   2.754  0.00  0.00    +0.000 C 
BRANCH  56  59
ATOM     58  C   UNK A   0      -9.949  10.286   3.154  0.00  0.00    +0.000 C 
ATOM     59  N   UNK A   0     -10.151   8.973   3.059  0.00  0.00    +0.000 N 
ATOM     60  H   UNK A   0      -9.359   8.311   3.186  0.00  0.00    +0.000 HD
ATOM     61  O   UNK A   0     -10.811  11.103   2.839  0.00  0.00    +0.000 OA
BRANCH  58  62
ATOM     62  C   UNK A   0      -8.598  10.759   3.683  0.00  0.00    +0.000 C 
BRANCH  62  63
ATOM     63  N   UNK A   0      -8.046  11.866   2.886  0.00  0.00    +0.000 NA
ATOM     64  H   UNK A   0      -8.039  12.835   3.263  0.00  0.00    +0.000 HD
ENDBRANCH  62  63
BRANCH  62  65
ATOM     65  C   UNK A   0      -8.753  11.180   5.140  0.00  0.00    +0.000 C 
BRANCH  65  66
ATOM     66  C   UNK A   0      -7.382  11.260   5.921  0.00  0.00    +0.000 C 
BRANCH  66  67
ATOM     67  C   UNK A   0      -7.568  11.765   7.336  0.00  0.00    +0.000 C 
ATOM     68  O   UNK A   0      -6.750  11.385   8.241  0.00  0.00    +0.000 OA
ATOM     69  O   UNK A   0      -8.542  12.547   7.588  0.00  0.00    +0.000 OA
ENDBRANCH  66  67
ENDBRANCH  65  66
ENDBRANCH  62  65
ENDBRANCH  58  62
ENDBRANCH  56  59
ENDBRANCH  52  56
ENDBRANCH  51  54
ENDBRANCH  47  51
ENDBRANCH  46  49
ENDBRANCH  43  46
ENDBRANCH  41  43
ENDBRANCH  36  41
ENDBRANCH   1  36
TORSDOF 31
REMARK  Name = ../refined-set-2016/4ncn/4ncn_pocket.pdb
REMARK  233 active torsions:
REMARK  status: ('A' for Active; 'I' for Inactive)
REMARK    1  A    between atoms: _1  and  _3
REMARK    2  A    between atoms: _3  and  _4
REMARK    3  A    between atoms: _3  and  _6
REMARK    4  A    between atoms: _6  and  _7
REMARK    5  A    between atoms: _10  and  _12
REMARK    6  A    between atoms: _12  and  _13
REMARK    7  A    between atoms: _12  and  _15
REMARK    8  A    between atoms: _15  and  _16
REMARK    9  A    between atoms: _19  and  _21
REMARK   10  A    between atoms: _21  and  _22
REMARK   11  A    between atoms: _24  and  _26
REMARK   12  A    between atoms: _26  and  _27
REMARK   13  A    between atoms: _26  and  _29
REMARK   14  A    between atoms: _29  and  _30
REMARK   15  A    between atoms: _35  and  _37
REMARK   16  A    between atoms: _37  and  _38
REMARK   17  A    between atoms: _37  and  _40
REMARK   18  A    between atoms: _43  and  _45
REMARK   19  A    between atoms: _45  and  _46
REMARK   20  A    between atoms: _45  and  _48
REMARK   21  A    between atoms: _48  and  _49
REMARK   22  A    between atoms: _52  and  _54
REMARK   23  A    between atoms: _54  and  _55
REMARK   24  A    between atoms: _54  and  _57
REMARK   25  A    between atoms: _57  and  _58
REMARK   26  A    between atoms: _61  and  _63
REMARK   27  A    between atoms: _63  and  _64
REMARK   28  A    between atoms: _66  and  _68
REMARK   29  A    between atoms: _68  and  _69
REMARK   30  A    between atoms: _68  and  _71
REMARK   31  A    between atoms: _71  and  _72
REMARK   32  A    between atoms: _72  and  _73
REMARK   33  A    between atoms: _73  and  _74
REMARK   34  A    between atoms: _74  and  _75
REMARK   35  A    between atoms: _79  and  _81
REMARK   36  A    between atoms: _81  and  _82
REMARK   37  A    between atoms: _81  and  _84
REMARK   38  A    between atoms: _84  and  _85
REMARK   39  A    between atoms: _88  and  _90
REMARK   40  A    between atoms: _90  and  _91
REMARK   41  A    between atoms: _90  and  _93
REMARK   42  A    between atoms: _93  and  _94
REMARK   43  A    between atoms: _94  and  _95
REMARK   44  A    between atoms: _95  and  _96
REMARK   45  A    between atoms: _96  and  _97
REMARK   46  A    between atoms: _101  and  _103
REMARK   47  A    between atoms: _103  and  _104
REMARK   48  A    between atoms: _103  and  _106
REMARK   49  A    between atoms: _106  and  _107
REMARK   50  A    between atoms: _110  and  _112
REMARK   51  A    between atoms: _112  and  _113
REMARK   52  A    between atoms: _112  and  _115
REMARK   53  A    between atoms: _115  and  _116
REMARK   54  A    between atoms: _119  and  _121
REMARK   55  A    between atoms: _121  and  _122
REMARK   56  A    between atoms: _121  and  _124
REMARK   57  A    between atoms: _124  and  _125
REMARK   58  A    between atoms: _128  and  _130
REMARK   59  A    between atoms: _130  and  _131
REMARK   60  A    between atoms: _130  and  _133
REMARK   61  A    between atoms: _133  and  _134
REMARK   62  A    between atoms: _134  and  _135
REMARK   63  A    between atoms: _135  and  _136
REMARK   64  A    between atoms: _136  and  _137
REMARK   65  A    between atoms: _141  and  _143
REMARK   66  A    between atoms: _143  and  _144
REMARK   67  A    between atoms: _143  and  _146
REMARK   68  A    between atoms: _146  and  _147
REMARK   69  A    between atoms: _147  and  _148
REMARK   70  A    between atoms: _148  and  _149
REMARK   71  A    between atoms: _158  and  _160
REMARK   72  A    between atoms: _160  and  _161
REMARK   73  A    between atoms: _160  and  _163
REMARK   74  A    between atoms: _166  and  _168
REMARK   75  A    between atoms: _168  and  _169
REMARK   76  A    between atoms: _168  and  _171
REMARK   77  A    between atoms: _171  and  _172
REMARK   78  A    between atoms: _172  and  _173
REMARK   79  A    between atoms: _178  and  _180
REMARK   80  A    between atoms: _180  and  _181
REMARK   81  A    between atoms: _180  and  _183
REMARK   82  A    between atoms: _183  and  _184
REMARK   83  A    between atoms: _184  and  _185
REMARK   84  A    between atoms: _188  and  _190
REMARK   85  A    between atoms: _190  and  _191
REMARK   86  A    between atoms: _190  and  _193
REMARK   87  A    between atoms: _193  and  _194
REMARK   88  A    between atoms: _194  and  _195
REMARK   89  A    between atoms: _198  and  _200
REMARK   90  A    between atoms: _200  and  _201
REMARK   91  A    between atoms: _204  and  _206
REMARK   92  A    between atoms: _206  and  _207
REMARK   93  A    between atoms: _209  and  _211
REMARK   94  A    between atoms: _211  and  _212
REMARK   95  A    between atoms: _212  and  _213
REMARK   96  A    between atoms: _212  and  _214
REMARK   97  A    between atoms: _214  and  _216
REMARK   98  A    between atoms: _216  and  _217
REMARK   99  A    between atoms: _216  and  _219
REMARK  100  A    between atoms: _219  and  _220
REMARK  101  A    between atoms: _223  and  _225
REMARK  102  A    between atoms: _225  and  _226
REMARK  103  A    between atoms: _225  and  _228
REMARK  104  A    between atoms: _228  and  _229
REMARK  105  A    between atoms: _232  and  _234
REMARK  106  A    between atoms: _234  and  _235
REMARK  107  A    between atoms: _234  and  _237
REMARK  108  A    between atoms: _237  and  _238
REMARK  109  A    between atoms: _238  and  _239
REMARK  110  A    between atoms: _244  and  _246
REMARK  111  A    between atoms: _246  and  _247
REMARK  112  A    between atoms: _246  and  _249
REMARK  113  A    between atoms: _249  and  _250
REMARK  114  A    between atoms: _250  and  _251
REMARK  115  A    between atoms: _256  and  _258
REMARK  116  A    between atoms: _258  and  _259
REMARK  117  A    between atoms: _258  and  _261
REMARK  118  A    between atoms: _261  and  _262
REMARK  119  A    between atoms: _265  and  _267
REMARK  120  A    between atoms: _267  and  _268
REMARK  121  A    between atoms: _267  and  _270
REMARK  122  A    between atoms: _270  and  _271
REMARK  123  A    between atoms: _275  and  _276
REMARK  124  A    between atoms: _281  and  _283
REMARK  125  A    between atoms: _283  and  _284
REMARK  126  A    between atoms: _286  and  _288
REMARK  127  A    between atoms: _288  and  _289
REMARK  128  A    between atoms: _288  and  _291
REMARK  129  A    between atoms: _291  and  _292
REMARK  130  A    between atoms: _297  and  _299
REMARK  131  A    between atoms: _299  and  _300
REMARK  132  A    between atoms: _299  and  _302
REMARK  133  A    between atoms: _302  and  _303
REMARK  134  A    between atoms: _303  and  _304
REMARK  135  A    between atoms: _307  and  _309
REMARK  136  A    between atoms: _309  and  _310
REMARK  137  A    between atoms: _309  and  _312
REMARK  138  A    between atoms: _312  and  _313
REMARK  139  A    between atoms: _319  and  _321
REMARK  140  A    between atoms: _321  and  _322
REMARK  141  A    between atoms: _321  and  _324
REMARK  142  A    between atoms: _324  and  _325
REMARK  143  A    between atoms: _325  and  _326
REMARK  144  A    between atoms: _326  and  _327
REMARK  145  A    between atoms: _336  and  _338
REMARK  146  A    between atoms: _338  and  _339
REMARK  147  A    between atoms: _338  and  _341
REMARK  148  A    between atoms: _344  and  _346
REMARK  149  A    between atoms: _346  and  _347
REMARK  150  A    between atoms: _346  and  _349
REMARK  151  A    between atoms: _349  and  _350
REMARK  152  A    between atoms: _353  and  _355
REMARK  153  A    between atoms: _355  and  _356
REMARK  154  A    between atoms: _355  and  _358
REMARK  155  A    between atoms: _358  and  _359
REMARK  156  A    between atoms: _362  and  _364
REMARK  157  A    between atoms: _364  and  _365
REMARK  158  A    between atoms: _364  and  _367
REMARK  159  A    between atoms: _367  and  _368
REMARK  160  A    between atoms: _368  and  _369
REMARK  161  A    between atoms: _371  and  _373
REMARK  162  A    between atoms: _373  and  _374
REMARK  163  A    between atoms: _373  and  _376
REMARK  164  A    between atoms: _376  and  _377
REMARK  165  A    between atoms: _377  and  _378
REMARK  166  A    between atoms: _383  and  _385
REMARK  167  A    between atoms: _385  and  _386
REMARK  168  A    between atoms: _385  and  _388
REMARK  169  A    between atoms: _388  and  _389
REMARK  170  A    between atoms: _392  and  _394
REMARK  171  A    between atoms: _394  and  _395
REMARK  172  A    between atoms: _394  and  _397
REMARK  173  A    between atoms: _397  and  _398
REMARK  174  A    between atoms: _403  and  _405
REMARK  175  A    between atoms: _405  and  _406
REMARK  176  A    between atoms: _405  and  _408
REMARK  177  A    between atoms: _408  and  _409
REMARK  178  A    between atoms: _409  and  _410
REMARK  179  A    between atoms: _410  and  _411
REMARK  180  A    between atoms: _411  and  _412
REMARK  181  A    between atoms: _416  and  _418
REMARK  182  A    between atoms: _418  and  _419
REMARK  183  A    between atoms: _418  and  _421
REMARK  184  A    between atoms: _421  and  _422
REMARK  185  A    between atoms: _425  and  _427
REMARK  186  A    between atoms: _427  and  _428
REMARK  187  A    between atoms: _427  and  _430
REMARK  188  A    between atoms: _430  and  _431
REMARK  189  A    between atoms: _434  and  _436
REMARK  190  A    between atoms: _436  and  _437
REMARK  191  A    between atoms: _436  and  _439
REMARK  192  A    between atoms: _439  and  _440
REMARK  193  A    between atoms: _440  and  _441
REMARK  194  A    between atoms: _441  and  _442
REMARK  195  A    between atoms: _451  and  _453
REMARK  196  A    between atoms: _453  and  _454
REMARK  197  A    between atoms: _453  and  _456
REMARK  198  A    between atoms: _456  and  _457
REMARK  199  A    between atoms: _460  and  _462
REMARK  200  A    between atoms: _462  and  _463
REMARK  201  A    between atoms: _462  and  _465
REMARK  202  A    between atoms: _465  and  _466
REMARK  203  A    between atoms: _469  and  _471
REMARK  204  A    between atoms: _471  and  _472
REMARK  205  A    between atoms: _471  and  _474
REMARK  206  A    between atoms: _474  and  _475
REMARK  207  A    between atoms: _477  and  _479
REMARK  208  A    between atoms: _479  and  _480
REMARK  209  A    between atoms: _483  and  _485
REMARK  210  A    between atoms: _485  and  _486
REMARK  211  A    between atoms: _485  and  _488
REMARK  212  A    between atoms: _488  and  _489
REMARK  213  A    between atoms: _494  and  _496
REMARK  214  A    between atoms: _496  and  _497
REMARK  215  A    between atoms: _496  and  _499
REMARK  216  A    between atoms: _499  and  _500
REMARK  217  A    between atoms: _503  and  _505
REMARK  218  A    between atoms: _505  and  _506
REMARK  219  A    between atoms: _508  and  _510
REMARK  220  A    between atoms: _510  and  _511
REMARK  221  A    between atoms: _510  and  _513
REMARK  222  A    between atoms: _513  and  _514
REMARK  223  A    between atoms: _514  and  _515
REMARK  224  A    between atoms: _518  and  _520
REMARK  225  A    between atoms: _520  and  _521
REMARK  226  A    between atoms: _520  and  _523
REMARK  227  A    between atoms: _523  and  _524
REMARK  228  A    between atoms: _527  and  _529
REMARK  229  A    between atoms: _529  and  _530
REMARK  230  A    between atoms: _529  and  _532
REMARK  231  A    between atoms: _532  and  _533
REMARK  232  A    between atoms: _533  and  _534
REMARK  233  A    between atoms: _534  and  _535
REMARK                            x       y       z     vdW  Elec       q    Type
REMARK                         _______ _______ _______ _____ _____    ______ ____
ROOT
ATOM      1  C   PRO A   3      -9.917   9.301  15.999  0.00  0.00    +0.241 C 
ATOM      2  O   PRO A   3      -9.731   8.909  17.172  0.00  0.00    -0.273 OA
ATOM      3  N   GLY A   4     -10.951  10.068  15.622  0.00  0.00    -0.295 N 
ATOM      4  H   GLY A   4     -11.013  10.416  14.644  0.00  0.00    +0.150 HD
ENDROOT
BRANCH   1  11
ATOM      5  C   THR A   2      -6.897   9.739  15.690  0.00  0.00    +0.246 C 
ATOM      6  O   THR A   2      -7.303  10.890  15.528  0.00  0.00    -0.273 OA
ATOM      7  N   PRO A   3      -7.628   8.642  15.385  0.00  0.00    -0.272 N 
ATOM      8  CD  PRO A   3      -7.126   7.247  15.253  0.00  0.00    +0.094 C 
ATOM      9  CG  PRO A   3      -8.154   6.590  14.294  0.00  0.00    +0.024 C 
ATOM     10  CB  PRO A   3      -9.490   7.397  14.528  0.00  0.00    +0.031 C 
ATOM     11  CA  PRO A   3      -9.018   8.821  14.931  0.00  0.00    +0.152 C 
BRANCH   5  12
ATOM     12  CA  THR A   2      -5.507   9.527  16.270  0.00  0.00    +0.176 C 
BRANCH  12  14
ATOM     13  C   ASP A   1      -3.406  10.526  15.604  0.00  0.00    +0.239 C 
ATOM     14  N   THR A   2      -4.641  10.697  16.062  0.00  0.00    -0.295 N 
ATOM     15  H   THR A   2      -4.993  11.653  16.272  0.00  0.00    +0.150 HD
ATOM     16  O   ASP A   1      -2.913   9.404  15.412  0.00  0.00    -0.274 OA
BRANCH  13  17
ATOM     17  CA  ASP A   1      -2.567  11.777  15.356  0.00  0.00    +0.156 C 
BRANCH  17  18
ATOM     18  N   ASP A   1      -1.211  11.427  15.773  0.00  0.00    -0.238 NA
ATOM     19  H   ASP A   1      -0.576  10.991  15.075  0.00  0.00    +0.142 HD
ENDBRANCH  17  18
BRANCH  17  20
ATOM     20  CB  ASP A   1      -2.585  12.193  13.863  0.00  0.00    +0.140 C 
BRANCH  20  21
ATOM     21  CG  ASP A   1      -3.897  12.880  13.453  0.00  0.00    +0.367 C 
ATOM     22  OD2 ASP A   1      -4.732  13.108  14.348  0.00  0.00    -0.246 OA
ATOM     23  OD1 ASP A   1      -4.099  13.183  12.255  0.00  0.00    -0.246 OA
ENDBRANCH  20  21
ENDBRANCH  17  20
ENDBRANCH  13  17
ENDBRANCH  12  14
BRANCH  12  24
ATOM     24  CB  THR A   2      -5.718   9.201  17.776  0.00  0.00    +0.137 C 
ATOM     25  CG2 THR A   2      -4.382   8.883  18.486  0.00  0.00    +0.034 C 
BRANCH  24  26
ATOM     26  OG1 THR A   2      -6.394  10.295  18.409  0.00  0.00    -0.382 OA
ATOM     27  HG1 THR A   2      -5.846  11.115  18.321  0.00  0.00    +0.210 HD
ENDBRANCH  24  26
ENDBRANCH  12  24
ENDBRANCH   5  12
ENDBRANCH   1  11
BRANCH   3  28
ATOM     28  CA  GLY A   4     -11.988  10.413  16.588  0.00  0.00    +0.176 C 
BRANCH  28  29
ATOM     29  C   GLY A   4     -13.234   9.557  16.332  0.00  0.00    +0.243 C 
ATOM     30  O   GLY A   4     -14.117   9.530  17.173  0.00  0.00    -0.273 OA
ATOM     31  N   HIS A   5     -13.330   8.895  15.191  0.00  0.00    -0.297 N 
ATOM     32  H   HIS A   5     -12.557   8.938  14.497  0.00  0.00    +0.150 HD
BRANCH  31  33
ATOM     33  CA  HIS A   5     -14.534   8.097  14.905  0.00  0.00    +0.155 C 
BRANCH  33  34
ATOM     34  C   HIS A   5     -14.769   7.059  16.028  0.00  0.00    +0.241 C 
ATOM     35  O   HIS A   5     -13.806   6.490  16.540  0.00  0.00    -0.273 OA
ATOM     36  N   GLU A   6     -16.038   6.858  16.404  0.00  0.00    -0.298 N 
ATOM     37  H   GLU A   6     -16.791   7.335  15.868  0.00  0.00    +0.150 HD
BRANCH  36  38
ATOM     38  CA  GLU A   6     -16.428   5.998  17.536  0.00  0.00    +0.137 C 
BRANCH  38  39
ATOM     39  C   GLU A   6     -15.734   4.624  17.485  0.00  0.00    +0.227 C 
ATOM     40  O   GLU A   6     -15.439   4.037  18.515  0.00  0.00    -0.286 OA
ENDBRANCH  38  39
BRANCH  38  41
ATOM     41  CB  GLU A   6     -17.944   5.755  17.529  0.00  0.00    +0.039 C 
BRANCH  41  42
ATOM     42  CG  GLU A   6     -18.459   4.939  18.728  0.00  0.00    +0.116 C 
BRANCH  42  43
ATOM     43  CD  GLU A   6     -18.314   3.391  18.608  0.00  0.00    +0.365 C 
ATOM     44  OE2 GLU A   6     -18.292   2.708  19.663  0.00  0.00    -0.246 OA
ATOM     45  OE1 GLU A   6     -18.212   2.858  17.477  0.00  0.00    -0.246 OA
ENDBRANCH  42  43
ENDBRANCH  41  42
ENDBRANCH  38  41
ENDBRANCH  36  38
ENDBRANCH  33  34
BRANCH  33  46
ATOM     46  CB  HIS A   5     -14.429   7.368  13.562  0.00  0.00    +0.076 C 
BRANCH  46  47
ATOM     47  CG  HIS A   5     -15.699   6.681  13.154  0.00  0.00    +0.082 A 
ATOM     48  ND1 HIS A   5     -16.029   5.415  13.578  0.00  0.00    -0.227 NA
ATOM     49  CE1 HIS A   5     -17.204   5.074  13.077  0.00  0.00    +0.199 A 
ATOM     50  NE2 HIS A   5     -17.656   6.081  12.344  0.00  0.00    -0.221 NA
ATOM     51  CD2 HIS A   5     -16.714   7.087  12.353  0.00  0.00    +0.115 A 
ENDBRANCH  46  47
ENDBRANCH  33  46
ENDBRANCH  31  33
ENDBRANCH  28  29
ENDBRANCH   3  28
TORSDOF 20
REMARK  Name = ../refined-set-2016/4ncn/4ncn_pocket.pdb
REMARK  233 active torsions:
REMARK  status: ('A' for Active; 'I' for Inactive)
REMARK    1  A    between atoms: _1  and  _3
REMARK    2  A    between atoms: _3  and  _4
REMARK    3  A    between atoms: _3  and  _6
REMARK    4  A    between atoms: _6  and  _7
REMARK    5  A    between atoms: _10  and  _12
REMARK    6  A    between atoms: _12  and  _13
REMARK    7  A    between atoms: _12  and  _15
REMARK    8  A    between atoms: _15  and  _16
REMARK    9  A    between atoms: _19  and  _21
REMARK   10  A    between atoms: _21  and  _22
REMARK   11  A    between atoms: _24  and  _26
REMARK   12  A    between atoms: _26  and  _27
REMARK   13  A    between atoms: _26  and  _29
REMARK   14  A    between atoms: _29  and  _30
REMARK   15  A    between atoms: _35  and  _37
REMARK   16  A    between atoms: _37  and  _38
REMARK   17  A    between atoms: _37  and  _40
REMARK   18  A    between atoms: _43  and  _45
REMARK   19  A    between atoms: _45  and  _46
REMARK   20  A    between atoms: _45  and  _48
REMARK   21  A    between atoms: _48  and  _49
REMARK   22  A    between atoms: _52  and  _54
REMARK   23  A    between atoms: _54  and  _55
REMARK   24  A    between atoms: _54  and  _57
REMARK   25  A    between atoms: _57  and  _58
REMARK   26  A    between atoms: _61  and  _63
REMARK   27  A    between atoms: _63  and  _64
REMARK   28  A    between atoms: _66  and  _68
REMARK   29  A    between atoms: _68  and  _69
REMARK   30  A    between atoms: _68  and  _71
REMARK   31  A    between atoms: _71  and  _72
REMARK   32  A    between atoms: _72  and  _73
REMARK   33  A    between atoms: _73  and  _74
REMARK   34  A    between atoms: _74  and  _75
REMARK   35  A    between atoms: _79  and  _81
REMARK   36  A    between atoms: _81  and  _82
REMARK   37  A    between atoms: _81  and  _84
REMARK   38  A    between atoms: _84  and  _85
REMARK   39  A    between atoms: _88  and  _90
REMARK   40  A    between atoms: _90  and  _91
REMARK   41  A    between atoms: _90  and  _93
REMARK   42  A    between atoms: _93  and  _94
REMARK   43  A    between atoms: _94  and  _95
REMARK   44  A    between atoms: _95  and  _96
REMARK   45  A    between atoms: _96  and  _97
REMARK   46  A    between atoms: _101  and  _103
REMARK   47  A    between atoms: _103  and  _104
REMARK   48  A    between atoms: _103  and  _106
REMARK   49  A    between atoms: _106  and  _107
REMARK   50  A    between atoms: _110  and  _112
REMARK   51  A    between atoms: _112  and  _113
REMARK   52  A    between atoms: _112  and  _115
REMARK   53  A    between atoms: _115  and  _116
REMARK   54  A    between atoms: _119  and  _121
REMARK   55  A    between atoms: _121  and  _122
REMARK   56  A    between atoms: _121  and  _124
REMARK   57  A    between atoms: _124  and  _125
REMARK   58  A    between atoms: _128  and  _130
REMARK   59  A    between atoms: _130  and  _131
REMARK   60  A    between atoms: _130  and  _133
REMARK   61  A    between atoms: _133  and  _134
REMARK   62  A    between atoms: _134  and  _135
REMARK   63  A    between atoms: _135  and  _136
REMARK   64  A    between atoms: _136  and  _137
REMARK   65  A    between atoms: _141  and  _143
REMARK   66  A    between atoms: _143  and  _144
REMARK   67  A    between atoms: _143  and  _146
REMARK   68  A    between atoms: _146  and  _147
REMARK   69  A    between atoms: _147  and  _148
REMARK   70  A    between atoms: _148  and  _149
REMARK   71  A    between atoms: _158  and  _160
REMARK   72  A    between atoms: _160  and  _161
REMARK   73  A    between atoms: _160  and  _163
REMARK   74  A    between atoms: _166  and  _168
REMARK   75  A    between atoms: _168  and  _169
REMARK   76  A    between atoms: _168  and  _171
REMARK   77  A    between atoms: _171  and  _172
REMARK   78  A    between atoms: _172  and  _173
REMARK   79  A    between atoms: _178  and  _180
REMARK   80  A    between atoms: _180  and  _181
REMARK   81  A    between atoms: _180  and  _183
REMARK   82  A    between atoms: _183  and  _184
REMARK   83  A    between atoms: _184  and  _185
REMARK   84  A    between atoms: _188  and  _190
REMARK   85  A    between atoms: _190  and  _191
REMARK   86  A    between atoms: _190  and  _193
REMARK   87  A    between atoms: _193  and  _194
REMARK   88  A    between atoms: _194  and  _195
REMARK   89  A    between atoms: _198  and  _200
REMARK   90  A    between atoms: _200  and  _201
REMARK   91  A    between atoms: _204  and  _206
REMARK   92  A    between atoms: _206  and  _207
REMARK   93  A    between atoms: _209  and  _211
REMARK   94  A    between atoms: _211  and  _212
REMARK   95  A    between atoms: _212  and  _213
REMARK   96  A    between atoms: _212  and  _214
REMARK   97  A    between atoms: _214  and  _216
REMARK   98  A    between atoms: _216  and  _217
REMARK   99  A    between atoms: _216  and  _219
REMARK  100  A    between atoms: _219  and  _220
REMARK  101  A    between atoms: _223  and  _225
REMARK  102  A    between atoms: _225  and  _226
REMARK  103  A    between atoms: _225  and  _228
REMARK  104  A    between atoms: _228  and  _229
REMARK  105  A    between atoms: _232  and  _234
REMARK  106  A    between atoms: _234  and  _235
REMARK  107  A    between atoms: _234  and  _237
REMARK  108  A    between atoms: _237  and  _238
REMARK  109  A    between atoms: _238  and  _239
REMARK  110  A    between atoms: _244  and  _246
REMARK  111  A    between atoms: _246  and  _247
REMARK  112  A    between atoms: _246  and  _249
REMARK  113  A    between atoms: _249  and  _250
REMARK  114  A    between atoms: _250  and  _251
REMARK  115  A    between atoms: _256  and  _258
REMARK  116  A    between atoms: _258  and  _259
REMARK  117  A    between atoms: _258  and  _261
REMARK  118  A    between atoms: _261  and  _262
REMARK  119  A    between atoms: _265  and  _267
REMARK  120  A    between atoms: _267  and  _268
REMARK  121  A    between atoms: _267  and  _270
REMARK  122  A    between atoms: _270  and  _271
REMARK  123  A    between atoms: _275  and  _276
REMARK  124  A    between atoms: _281  and  _283
REMARK  125  A    between atoms: _283  and  _284
REMARK  126  A    between atoms: _286  and  _288
REMARK  127  A    between atoms: _288  and  _289
REMARK  128  A    between atoms: _288  and  _291
REMARK  129  A    between atoms: _291  and  _292
REMARK  130  A    between atoms: _297  and  _299
REMARK  131  A    between atoms: _299  and  _300
REMARK  132  A    between atoms: _299  and  _302
REMARK  133  A    between atoms: _302  and  _303
REMARK  134  A    between atoms: _303  and  _304
REMARK  135  A    between atoms: _307  and  _309
REMARK  136  A    between atoms: _309  and  _310
REMARK  137  A    between atoms: _309  and  _312
REMARK  138  A    between atoms: _312  and  _313
REMARK  139  A    between atoms: _319  and  _321
REMARK  140  A    between atoms: _321  and  _322
REMARK  141  A    between atoms: _321  and  _324
REMARK  142  A    between atoms: _324  and  _325
REMARK  143  A    between atoms: _325  and  _326
REMARK  144  A    between atoms: _326  and  _327
REMARK  145  A    between atoms: _336  and  _338
REMARK  146  A    between atoms: _338  and  _339
REMARK  147  A    between atoms: _338  and  _341
REMARK  148  A    between atoms: _344  and  _346
REMARK  149  A    between atoms: _346  and  _347
REMARK  150  A    between atoms: _346  and  _349
REMARK  151  A    between atoms: _349  and  _350
REMARK  152  A    between atoms: _353  and  _355
REMARK  153  A    between atoms: _355  and  _356
REMARK  154  A    between atoms: _355  and  _358
REMARK  155  A    between atoms: _358  and  _359
REMARK  156  A    between atoms: _362  and  _364
REMARK  157  A    between atoms: _364  and  _365
REMARK  158  A    between atoms: _364  and  _367
REMARK  159  A    between atoms: _367  and  _368
REMARK  160  A    between atoms: _368  and  _369
REMARK  161  A    between atoms: _371  and  _373
REMARK  162  A    between atoms: _373  and  _374
REMARK  163  A    between atoms: _373  and  _376
REMARK  164  A    between atoms: _376  and  _377
REMARK  165  A    between atoms: _377  and  _378
REMARK  166  A    between atoms: _383  and  _385
REMARK  167  A    between atoms: _385  and  _386
REMARK  168  A    between atoms: _385  and  _388
REMARK  169  A    between atoms: _388  and  _389
REMARK  170  A    between atoms: _392  and  _394
REMARK  171  A    between atoms: _394  and  _395
REMARK  172  A    between atoms: _394  and  _397
REMARK  173  A    between atoms: _397  and  _398
REMARK  174  A    between atoms: _403  and  _405
REMARK  175  A    between atoms: _405  and  _406
REMARK  176  A    between atoms: _405  and  _408
REMARK  177  A    between atoms: _408  and  _409
REMARK  178  A    between atoms: _409  and  _410
REMARK  179  A    between atoms: _410  and  _411
REMARK  180  A    between atoms: _411  and  _412
REMARK  181  A    between atoms: _416  and  _418
REMARK  182  A    between atoms: _418  and  _419
REMARK  183  A    between atoms: _418  and  _421
REMARK  184  A    between atoms: _421  and  _422
REMARK  185  A    between atoms: _425  and  _427
REMARK  186  A    between atoms: _427  and  _428
REMARK  187  A    between atoms: _427  and  _430
REMARK  188  A    between atoms: _430  and  _431
REMARK  189  A    between atoms: _434  and  _436
REMARK  190  A    between atoms: _436  and  _437
REMARK  191  A    between atoms: _436  and  _439
REMARK  192  A    between atoms: _439  and  _440
REMARK  193  A    between atoms: _440  and  _441
REMARK  194  A    between atoms: _441  and  _442
REMARK  195  A    between atoms: _451  and  _453
REMARK  196  A    between atoms: _453  and  _454
REMARK  197  A    between atoms: _453  and  _456
REMARK  198  A    between atoms: _456  and  _457
REMARK  199  A    between atoms: _460  and  _462
REMARK  200  A    between atoms: _462  and  _463
REMARK  201  A    between atoms: _462  and  _465
REMARK  202  A    between atoms: _465  and  _466
REMARK  203  A    between atoms: _469  and  _471
REMARK  204  A    between atoms: _471  and  _472
REMARK  205  A    between atoms: _471  and  _474
REMARK  206  A    between atoms: _474  and  _475
REMARK  207  A    between atoms: _477  and  _479
REMARK  208  A    between atoms: _479  and  _480
REMARK  209  A    between atoms: _483  and  _485
REMARK  210  A    between atoms: _485  and  _486
REMARK  211  A    between atoms: _485  and  _488
REMARK  212  A    between atoms: _488  and  _489
REMARK  213  A    between atoms: _494  and  _496
REMARK  214  A    between atoms: _496  and  _497
REMARK  215  A    between atoms: _496  and  _499
REMARK  216  A    between atoms: _499  and  _500
REMARK  217  A    between atoms: _503  and  _505
REMARK  218  A    between atoms: _505  and  _506
REMARK  219  A    between atoms: _508  and  _510
REMARK  220  A    between atoms: _510  and  _511
REMARK  221  A    between atoms: _510  and  _513
REMARK  222  A    between atoms: _513  and  _514
REMARK  223  A    between atoms: _514  and  _515
REMARK  224  A    between atoms: _518  and  _520
REMARK  225  A    between atoms: _520  and  _521
REMARK  226  A    between atoms: _520  and  _523
REMARK  227  A    between atoms: _523  and  _524
REMARK  228  A    between atoms: _527  and  _529
REMARK  229  A    between atoms: _529  and  _530
REMARK  230  A    between atoms: _529  and  _532
REMARK  231  A    between atoms: _532  and  _533
REMARK  232  A    between atoms: _533  and  _534
REMARK  233  A    between atoms: _534  and  _535
REMARK                            x       y       z     vdW  Elec       q    Type
REMARK                         _______ _______ _______ _____ _____    ______ ____
ROOT
ATOM      1  CB  PHE A   1     -10.669   4.287  15.917  0.00  0.00    +0.051 C 
ENDROOT
BRANCH   1   2
ATOM      2  CG  PHE A   1     -10.957   4.008  14.454  0.00  0.00    -0.020 A 
ATOM      3  CD2 PHE A   1     -12.130   4.509  13.857  0.00  0.00    -0.004 A 
ATOM      4  CE2 PHE A   1     -12.436   4.239  12.492  0.00  0.00    -0.000 A 
ATOM      5  CZ  PHE A   1     -11.547   3.453  11.735  0.00  0.00    -0.000 A 
ATOM      6  CE1 PHE A   1     -10.385   2.931  12.345  0.00  0.00    -0.000 A 
ATOM      7  CD1 PHE A   1     -10.097   3.216  13.690  0.00  0.00    -0.004 A 
ENDBRANCH   1   2
BRANCH   1   8
ATOM      8  CA  PHE A   1     -11.423   3.322  16.859  0.00  0.00    +0.137 C 
BRANCH   8   9
ATOM      9  N   PHE A   1     -12.910   3.479  16.675  0.00  0.00    -0.239 NA
ATOM     10  H   PHE A   1     -13.335   4.426  16.741  0.00  0.00    +0.142 HD
ENDBRANCH   8   9
BRANCH   8  11
ATOM     11  C   PHE A   1     -10.940   3.545  18.307  0.00  0.00    +0.224 C 
ATOM     12  O   PHE A   1      -9.840   4.123  18.581  0.00  0.00    -0.287 OA
ENDBRANCH   8  11
ENDBRANCH   1   8
TORSDOF 4
REMARK  Name = ../refined-set-2016/4ncn/4ncn_pocket.pdb
REMARK  233 active torsions:
REMARK  status: ('A' for Active; 'I' for Inactive)
REMARK    1  A    between atoms: _1  and  _3
REMARK    2  A    between atoms: _3  and  _4
REMARK    3  A    between atoms: _3  and  _6
REMARK    4  A    between atoms: _6  and  _7
REMARK    5  A    between atoms: _10  and  _12
REMARK    6  A    between atoms: _12  and  _13
REMARK    7  A    between atoms: _12  and  _15
REMARK    8  A    between atoms: _15  and  _16
REMARK    9  A    between atoms: _19  and  _21
REMARK   10  A    between atoms: _21  and  _22
REMARK   11  A    between atoms: _24  and  _26
REMARK   12  A    between atoms: _26  and  _27
REMARK   13  A    between atoms: _26  and  _29
REMARK   14  A    between atoms: _29  and  _30
REMARK   15  A    between atoms: _35  and  _37
REMARK   16  A    between atoms: _37  and  _38
REMARK   17  A    between atoms: _37  and  _40
REMARK   18  A    between atoms: _43  and  _45
REMARK   19  A    between atoms: _45  and  _46
REMARK   20  A    between atoms: _45  and  _48
REMARK   21  A    between atoms: _48  and  _49
REMARK   22  A    between atoms: _52  and  _54
REMARK   23  A    between atoms: _54  and  _55
REMARK   24  A    between atoms: _54  and  _57
REMARK   25  A    between atoms: _57  and  _58
REMARK   26  A    between atoms: _61  and  _63
REMARK   27  A    between atoms: _63  and  _64
REMARK   28  A    between atoms: _66  and  _68
REMARK   29  A    between atoms: _68  and  _69
REMARK   30  A    between atoms: _68  and  _71
REMARK   31  A    between atoms: _71  and  _72
REMARK   32  A    between atoms: _72  and  _73
REMARK   33  A    between atoms: _73  and  _74
REMARK   34  A    between atoms: _74  and  _75
REMARK   35  A    between atoms: _79  and  _81
REMARK   36  A    between atoms: _81  and  _82
REMARK   37  A    between atoms: _81  and  _84
REMARK   38  A    between atoms: _84  and  _85
REMARK   39  A    between atoms: _88  and  _90
REMARK   40  A    between atoms: _90  and  _91
REMARK   41  A    between atoms: _90  and  _93
REMARK   42  A    between atoms: _93  and  _94
REMARK   43  A    between atoms: _94  and  _95
REMARK   44  A    between atoms: _95  and  _96
REMARK   45  A    between atoms: _96  and  _97
REMARK   46  A    between atoms: _101  and  _103
REMARK   47  A    between atoms: _103  and  _104
REMARK   48  A    between atoms: _103  and  _106
REMARK   49  A    between atoms: _106  and  _107
REMARK   50  A    between atoms: _110  and  _112
REMARK   51  A    between atoms: _112  and  _113
REMARK   52  A    between atoms: _112  and  _115
REMARK   53  A    between atoms: _115  and  _116
REMARK   54  A    between atoms: _119  and  _121
REMARK   55  A    between atoms: _121  and  _122
REMARK   56  A    between atoms: _121  and  _124
REMARK   57  A    between atoms: _124  and  _125
REMARK   58  A    between atoms: _128  and  _130
REMARK   59  A    between atoms: _130  and  _131
REMARK   60  A    between atoms: _130  and  _133
REMARK   61  A    between atoms: _133  and  _134
REMARK   62  A    between atoms: _134  and  _135
REMARK   63  A    between atoms: _135  and  _136
REMARK   64  A    between atoms: _136  and  _137
REMARK   65  A    between atoms: _141  and  _143
REMARK   66  A    between atoms: _143  and  _144
REMARK   67  A    between atoms: _143  and  _146
REMARK   68  A    between atoms: _146  and  _147
REMARK   69  A    between atoms: _147  and  _148
REMARK   70  A    between atoms: _148  and  _149
REMARK   71  A    between atoms: _158  and  _160
REMARK   72  A    between atoms: _160  and  _161
REMARK   73  A    between atoms: _160  and  _163
REMARK   74  A    between atoms: _166  and  _168
REMARK   75  A    between atoms: _168  and  _169
REMARK   76  A    between atoms: _168  and  _171
REMARK   77  A    between atoms: _171  and  _172
REMARK   78  A    between atoms: _172  and  _173
REMARK   79  A    between atoms: _178  and  _180
REMARK   80  A    between atoms: _180  and  _181
REMARK   81  A    between atoms: _180  and  _183
REMARK   82  A    between atoms: _183  and  _184
REMARK   83  A    between atoms: _184  and  _185
REMARK   84  A    between atoms: _188  and  _190
REMARK   85  A    between atoms: _190  and  _191
REMARK   86  A    between atoms: _190  and  _193
REMARK   87  A    between atoms: _193  and  _194
REMARK   88  A    between atoms: _194  and  _195
REMARK   89  A    between atoms: _198  and  _200
REMARK   90  A    between atoms: _200  and  _201
REMARK   91  A    between atoms: _204  and  _206
REMARK   92  A    between atoms: _206  and  _207
REMARK   93  A    between atoms: _209  and  _211
REMARK   94  A    between atoms: _211  and  _212
REMARK   95  A    between atoms: _212  and  _213
REMARK   96  A    between atoms: _212  and  _214
REMARK   97  A    between atoms: _214  and  _216
REMARK   98  A    between atoms: _216  and  _217
REMARK   99  A    between atoms: _216  and  _219
REMARK  100  A    between atoms: _219  and  _220
REMARK  101  A    between atoms: _223  and  _225
REMARK  102  A    between atoms: _225  and  _226
REMARK  103  A    between atoms: _225  and  _228
REMARK  104  A    between atoms: _228  and  _229
REMARK  105  A    between atoms: _232  and  _234
REMARK  106  A    between atoms: _234  and  _235
REMARK  107  A    between atoms: _234  and  _237
REMARK  108  A    between atoms: _237  and  _238
REMARK  109  A    between atoms: _238  and  _239
REMARK  110  A    between atoms: _244  and  _246
REMARK  111  A    between atoms: _246  and  _247
REMARK  112  A    between atoms: _246  and  _249
REMARK  113  A    between atoms: _249  and  _250
REMARK  114  A    between atoms: _250  and  _251
REMARK  115  A    between atoms: _256  and  _258
REMARK  116  A    between atoms: _258  and  _259
REMARK  117  A    between atoms: _258  and  _261
REMARK  118  A    between atoms: _261  and  _262
REMARK  119  A    between atoms: _265  and  _267
REMARK  120  A    between atoms: _267  and  _268
REMARK  121  A    between atoms: _267  and  _270
REMARK  122  A    between atoms: _270  and  _271
REMARK  123  A    between atoms: _275  and  _276
REMARK  124  A    between atoms: _281  and  _283
REMARK  125  A    between atoms: _283  and  _284
REMARK  126  A    between atoms: _286  and  _288
REMARK  127  A    between atoms: _288  and  _289
REMARK  128  A    between atoms: _288  and  _291
REMARK  129  A    between atoms: _291  and  _292
REMARK  130  A    between atoms: _297  and  _299
REMARK  131  A    between atoms: _299  and  _300
REMARK  132  A    between atoms: _299  and  _302
REMARK  133  A    between atoms: _302  and  _303
REMARK  134  A    between atoms: _303  and  _304
REMARK  135  A    between atoms: _307  and  _309
REMARK  136  A    between atoms: _309  and  _310
REMARK  137  A    between atoms: _309  and  _312
REMARK  138  A    between atoms: _312  and  _313
REMARK  139  A    between atoms: _319  and  _321
REMARK  140  A    between atoms: _321  and  _322
REMARK  141  A    between atoms: _321  and  _324
REMARK  142  A    between atoms: _324  and  _325
REMARK  143  A    between atoms: _325  and  _326
REMARK  144  A    between atoms: _326  and  _327
REMARK  145  A    between atoms: _336  and  _338
REMARK  146  A    between atoms: _338  and  _339
REMARK  147  A    between atoms: _338  and  _341
REMARK  148  A    between atoms: _344  and  _346
REMARK  149  A    between atoms: _346  and  _347
REMARK  150  A    between atoms: _346  and  _349
REMARK  151  A    between atoms: _349  and  _350
REMARK  152  A    between atoms: _353  and  _355
REMARK  153  A    between atoms: _355  and  _356
REMARK  154  A    between atoms: _355  and  _358
REMARK  155  A    between atoms: _358  and  _359
REMARK  156  A    between atoms: _362  and  _364
REMARK  157  A    between atoms: _364  and  _365
REMARK  158  A    between atoms: _364  and  _367
REMARK  159  A    between atoms: _367  and  _368
REMARK  160  A    between atoms: _368  and  _369
REMARK  161  A    between atoms: _371  and  _373
REMARK  162  A    between atoms: _373  and  _374
REMARK  163  A    between atoms: _373  and  _376
REMARK  164  A    between atoms: _376  and  _377
REMARK  165  A    between atoms: _377  and  _378
REMARK  166  A    between atoms: _383  and  _385
REMARK  167  A    between atoms: _385  and  _386
REMARK  168  A    between atoms: _385  and  _388
REMARK  169  A    between atoms: _388  and  _389
REMARK  170  A    between atoms: _392  and  _394
REMARK  171  A    between atoms: _394  and  _395
REMARK  172  A    between atoms: _394  and  _397
REMARK  173  A    between atoms: _397  and  _398
REMARK  174  A    between atoms: _403  and  _405
REMARK  175  A    between atoms: _405  and  _406
REMARK  176  A    between atoms: _405  and  _408
REMARK  177  A    between atoms: _408  and  _409
REMARK  178  A    between atoms: _409  and  _410
REMARK  179  A    between atoms: _410  and  _411
REMARK  180  A    between atoms: _411  and  _412
REMARK  181  A    between atoms: _416  and  _418
REMARK  182  A    between atoms: _418  and  _419
REMARK  183  A    between atoms: _418  and  _421
REMARK  184  A    between atoms: _421  and  _422
REMARK  185  A    between atoms: _425  and  _427
REMARK  186  A    between atoms: _427  and  _428
REMARK  187  A    between atoms: _427  and  _430
REMARK  188  A    between atoms: _430  and  _431
REMARK  189  A    between atoms: _434  and  _436
REMARK  190  A    between atoms: _436  and  _437
REMARK  191  A    between atoms: _436  and  _439
REMARK  192  A    between atoms: _439  and  _440
REMARK  193  A    between atoms: _440  and  _441
REMARK  194  A    between atoms: _441  and  _442
REMARK  195  A    between atoms: _451  and  _453
REMARK  196  A    between atoms: _453  and  _454
REMARK  197  A    between atoms: _453  and  _456
REMARK  198  A    between atoms: _456  and  _457
REMARK  199  A    between atoms: _460  and  _462
REMARK  200  A    between atoms: _462  and  _463
REMARK  201  A    between atoms: _462  and  _465
REMARK  202  A    between atoms: _465  and  _466
REMARK  203  A    between atoms: _469  and  _471
REMARK  204  A    between atoms: _471  and  _472
REMARK  205  A    between atoms: _471  and  _474
REMARK  206  A    between atoms: _474  and  _475
REMARK  207  A    between atoms: _477  and  _479
REMARK  208  A    between atoms: _479  and  _480
REMARK  209  A    between atoms: _483  and  _485
REMARK  210  A    between atoms: _485  and  _486
REMARK  211  A    between atoms: _485  and  _488
REMARK  212  A    between atoms: _488  and  _489
REMARK  213  A    between atoms: _494  and  _496
REMARK  214  A    between atoms: _496  and  _497
REMARK  215  A    between atoms: _496  and  _499
REMARK  216  A    between atoms: _499  and  _500
REMARK  217  A    between atoms: _503  and  _505
REMARK  218  A    between atoms: _505  and  _506
REMARK  219  A    between atoms: _508  and  _510
REMARK  220  A    between atoms: _510  and  _511
REMARK  221  A    between atoms: _510  and  _513
REMARK  222  A    between atoms: _513  and  _514
REMARK  223  A    between atoms: _514  and  _515
REMARK  224  A    between atoms: _518  and  _520
REMARK  225  A    between atoms: _520  and  _521
REMARK  226  A    between atoms: _520  and  _523
REMARK  227  A    between atoms: _523  and  _524
REMARK  228  A    between atoms: _527  and  _529
REMARK  229  A    between atoms: _529  and  _530
REMARK  230  A    between atoms: _529  and  _532
REMARK  231  A    between atoms: _532  and  _533
REMARK  232  A    between atoms: _533  and  _534
REMARK  233  A    between atoms: _534  and  _535
REMARK                            x       y       z     vdW  Elec       q    Type
REMARK                         _______ _______ _______ _____ _____    ______ ____
ROOT
ATOM      1  NE  ARG A   1     -11.513   7.333  20.732  0.00  0.00    -0.265 N 
ATOM      2  HE  ARG A   1     -11.733   6.974  21.683  0.00  0.00    +0.259 HD
ATOM      3  CZ  ARG A   1     -12.256   6.898  19.713  0.00  0.00    +0.342 C 
ATOM      4  NH2 ARG A   1     -13.313   6.098  19.940  0.00  0.00    -0.292 N 
ATOM      5 HH21 ARG A   1     -13.553   5.817  20.912  0.00  0.00    +0.255 HD
ATOM      6 HH22 ARG A   1     -13.890   5.761  19.143  0.00  0.00    +0.255 HD
ATOM      7  NH1 ARG A   1     -11.919   7.233  18.451  0.00  0.00    -0.292 N 
ATOM      8 HH11 ARG A   1     -11.084   7.827  18.276  0.00  0.00    +0.255 HD
ATOM      9 HH12 ARG A   1     -12.494   6.897  17.652  0.00  0.00    +0.255 HD
ENDROOT
BRANCH   1  10
ATOM     10  CD  ARG A   1     -10.375   8.312  20.593  0.00  0.00    +0.174 C 
BRANCH  10  11
ATOM     11  CG  ARG A   1      -8.964   7.690  20.216  0.00  0.00    +0.045 C 
BRANCH  11  12
ATOM     12  CB  ARG A   1      -8.446   6.823  21.343  0.00  0.00    +0.029 C 
BRANCH  12  13
ATOM     13  CA  ARG A   1      -7.119   6.139  21.005  0.00  0.00    +0.133 C 
BRANCH  13  14
ATOM     14  N   ARG A   1      -7.291   4.995  20.094  0.00  0.00    -0.239 NA
ATOM     15  H   ARG A   1      -8.232   4.612  19.872  0.00  0.00    +0.142 HD
ENDBRANCH  13  14
BRANCH  13  16
ATOM     16  C   ARG A   1      -6.413   5.629  22.254  0.00  0.00    +0.224 C 
ATOM     17  O   ARG A   1      -5.468   6.298  22.787  0.00  0.00    -0.287 OA
ENDBRANCH  13  16
ENDBRANCH  12  13
ENDBRANCH  11  12
ENDBRANCH  10  11
ENDBRANCH   1  10
TORSDOF 6
REMARK  Name = ../refined-set-2016/4ncn/4ncn_pocket.pdb
REMARK  233 active torsions:
REMARK  status: ('A' for Active; 'I' for Inactive)
REMARK    1  A    between atoms: _1  and  _3
REMARK    2  A    between atoms: _3  and  _4
REMARK    3  A    between atoms: _3  and  _6
REMARK    4  A    between atoms: _6  and  _7
REMARK    5  A    between atoms: _10  and  _12
REMARK    6  A    between atoms: _12  and  _13
REMARK    7  A    between atoms: _12  and  _15
REMARK    8  A    between atoms: _15  and  _16
REMARK    9  A    between atoms: _19  and  _21
REMARK   10  A    between atoms: _21  and  _22
REMARK   11  A    between atoms: _24  and  _26
REMARK   12  A    between atoms: _26  and  _27
REMARK   13  A    between atoms: _26  and  _29
REMARK   14  A    between atoms: _29  and  _30
REMARK   15  A    between atoms: _35  and  _37
REMARK   16  A    between atoms: _37  and  _38
REMARK   17  A    between atoms: _37  and  _40
REMARK   18  A    between atoms: _43  and  _45
REMARK   19  A    between atoms: _45  and  _46
REMARK   20  A    between atoms: _45  and  _48
REMARK   21  A    between atoms: _48  and  _49
REMARK   22  A    between atoms: _52  and  _54
REMARK   23  A    between atoms: _54  and  _55
REMARK   24  A    between atoms: _54  and  _57
REMARK   25  A    between atoms: _57  and  _58
REMARK   26  A    between atoms: _61  and  _63
REMARK   27  A    between atoms: _63  and  _64
REMARK   28  A    between atoms: _66  and  _68
REMARK   29  A    between atoms: _68  and  _69
REMARK   30  A    between atoms: _68  and  _71
REMARK   31  A    between atoms: _71  and  _72
REMARK   32  A    between atoms: _72  and  _73
REMARK   33  A    between atoms: _73  and  _74
REMARK   34  A    between atoms: _74  and  _75
REMARK   35  A    between atoms: _79  and  _81
REMARK   36  A    between atoms: _81  and  _82
REMARK   37  A    between atoms: _81  and  _84
REMARK   38  A    between atoms: _84  and  _85
REMARK   39  A    between atoms: _88  and  _90
REMARK   40  A    between atoms: _90  and  _91
REMARK   41  A    between atoms: _90  and  _93
REMARK   42  A    between atoms: _93  and  _94
REMARK   43  A    between atoms: _94  and  _95
REMARK   44  A    between atoms: _95  and  _96
REMARK   45  A    between atoms: _96  and  _97
REMARK   46  A    between atoms: _101  and  _103
REMARK   47  A    between atoms: _103  and  _104
REMARK   48  A    between atoms: _103  and  _106
REMARK   49  A    between atoms: _106  and  _107
REMARK   50  A    between atoms: _110  and  _112
REMARK   51  A    between atoms: _112  and  _113
REMARK   52  A    between atoms: _112  and  _115
REMARK   53  A    between atoms: _115  and  _116
REMARK   54  A    between atoms: _119  and  _121
REMARK   55  A    between atoms: _121  and  _122
REMARK   56  A    between atoms: _121  and  _124
REMARK   57  A    between atoms: _124  and  _125
REMARK   58  A    between atoms: _128  and  _130
REMARK   59  A    between atoms: _130  and  _131
REMARK   60  A    between atoms: _130  and  _133
REMARK   61  A    between atoms: _133  and  _134
REMARK   62  A    between atoms: _134  and  _135
REMARK   63  A    between atoms: _135  and  _136
REMARK   64  A    between atoms: _136  and  _137
REMARK   65  A    between atoms: _141  and  _143
REMARK   66  A    between atoms: _143  and  _144
REMARK   67  A    between atoms: _143  and  _146
REMARK   68  A    between atoms: _146  and  _147
REMARK   69  A    between atoms: _147  and  _148
REMARK   70  A    between atoms: _148  and  _149
REMARK   71  A    between atoms: _158  and  _160
REMARK   72  A    between atoms: _160  and  _161
REMARK   73  A    between atoms: _160  and  _163
REMARK   74  A    between atoms: _166  and  _168
REMARK   75  A    between atoms: _168  and  _169
REMARK   76  A    between atoms: _168  and  _171
REMARK   77  A    between atoms: _171  and  _172
REMARK   78  A    between atoms: _172  and  _173
REMARK   79  A    between atoms: _178  and  _180
REMARK   80  A    between atoms: _180  and  _181
REMARK   81  A    between atoms: _180  and  _183
REMARK   82  A    between atoms: _183  and  _184
REMARK   83  A    between atoms: _184  and  _185
REMARK   84  A    between atoms: _188  and  _190
REMARK   85  A    between atoms: _190  and  _191
REMARK   86  A    between atoms: _190  and  _193
REMARK   87  A    between atoms: _193  and  _194
REMARK   88  A    between atoms: _194  and  _195
REMARK   89  A    between atoms: _198  and  _200
REMARK   90  A    between atoms: _200  and  _201
REMARK   91  A    between atoms: _204  and  _206
REMARK   92  A    between atoms: _206  and  _207
REMARK   93  A    between atoms: _209  and  _211
REMARK   94  A    between atoms: _211  and  _212
REMARK   95  A    between atoms: _212  and  _213
REMARK   96  A    between atoms: _212  and  _214
REMARK   97  A    between atoms: _214  and  _216
REMARK   98  A    between atoms: _216  and  _217
REMARK   99  A    between atoms: _216  and  _219
REMARK  100  A    between atoms: _219  and  _220
REMARK  101  A    between atoms: _223  and  _225
REMARK  102  A    between atoms: _225  and  _226
REMARK  103  A    between atoms: _225  and  _228
REMARK  104  A    between atoms: _228  and  _229
REMARK  105  A    between atoms: _232  and  _234
REMARK  106  A    between atoms: _234  and  _235
REMARK  107  A    between atoms: _234  and  _237
REMARK  108  A    between atoms: _237  and  _238
REMARK  109  A    between atoms: _238  and  _239
REMARK  110  A    between atoms: _244  and  _246
REMARK  111  A    between atoms: _246  and  _247
REMARK  112  A    between atoms: _246  and  _249
REMARK  113  A    between atoms: _249  and  _250
REMARK  114  A    between atoms: _250  and  _251
REMARK  115  A    between atoms: _256  and  _258
REMARK  116  A    between atoms: _258  and  _259
REMARK  117  A    between atoms: _258  and  _261
REMARK  118  A    between atoms: _261  and  _262
REMARK  119  A    between atoms: _265  and  _267
REMARK  120  A    between atoms: _267  and  _268
REMARK  121  A    between atoms: _267  and  _270
REMARK  122  A    between atoms: _270  and  _271
REMARK  123  A    between atoms: _275  and  _276
REMARK  124  A    between atoms: _281  and  _283
REMARK  125  A    between atoms: _283  and  _284
REMARK  126  A    between atoms: _286  and  _288
REMARK  127  A    between atoms: _288  and  _289
REMARK  128  A    between atoms: _288  and  _291
REMARK  129  A    between atoms: _291  and  _292
REMARK  130  A    between atoms: _297  and  _299
REMARK  131  A    between atoms: _299  and  _300
REMARK  132  A    between atoms: _299  and  _302
REMARK  133  A    between atoms: _302  and  _303
REMARK  134  A    between atoms: _303  and  _304
REMARK  135  A    between atoms: _307  and  _309
REMARK  136  A    between atoms: _309  and  _310
REMARK  137  A    between atoms: _309  and  _312
REMARK  138  A    between atoms: _312  and  _313
REMARK  139  A    between atoms: _319  and  _321
REMARK  140  A    between atoms: _321  and  _322
REMARK  141  A    between atoms: _321  and  _324
REMARK  142  A    between atoms: _324  and  _325
REMARK  143  A    between atoms: _325  and  _326
REMARK  144  A    between atoms: _326  and  _327
REMARK  145  A    between atoms: _336  and  _338
REMARK  146  A    between atoms: _338  and  _339
REMARK  147  A    between atoms: _338  and  _341
REMARK  148  A    between atoms: _344  and  _346
REMARK  149  A    between atoms: _346  and  _347
REMARK  150  A    between atoms: _346  and  _349
REMARK  151  A    between atoms: _349  and  _350
REMARK  152  A    between atoms: _353  and  _355
REMARK  153  A    between atoms: _355  and  _356
REMARK  154  A    between atoms: _355  and  _358
REMARK  155  A    between atoms: _358  and  _359
REMARK  156  A    between atoms: _362  and  _364
REMARK  157  A    between atoms: _364  and  _365
REMARK  158  A    between atoms: _364  and  _367
REMARK  159  A    between atoms: _367  and  _368
REMARK  160  A    between atoms: _368  and  _369
REMARK  161  A    between atoms: _371  and  _373
REMARK  162  A    between atoms: _373  and  _374
REMARK  163  A    between atoms: _373  and  _376
REMARK  164  A    between atoms: _376  and  _377
REMARK  165  A    between atoms: _377  and  _378
REMARK  166  A    between atoms: _383  and  _385
REMARK  167  A    between atoms: _385  and  _386
REMARK  168  A    between atoms: _385  and  _388
REMARK  169  A    between atoms: _388  and  _389
REMARK  170  A    between atoms: _392  and  _394
REMARK  171  A    between atoms: _394  and  _395
REMARK  172  A    between atoms: _394  and  _397
REMARK  173  A    between atoms: _397  and  _398
REMARK  174  A    between atoms: _403  and  _405
REMARK  175  A    between atoms: _405  and  _406
REMARK  176  A    between atoms: _405  and  _408
REMARK  177  A    between atoms: _408  and  _409
REMARK  178  A    between atoms: _409  and  _410
REMARK  179  A    between atoms: _410  and  _411
REMARK  180  A    between atoms: _411  and  _412
REMARK  181  A    between atoms: _416  and  _418
REMARK  182  A    between atoms: _418  and  _419
REMARK  183  A    between atoms: _418  and  _421
REMARK  184  A    between atoms: _421  and  _422
REMARK  185  A    between atoms: _425  and  _427
REMARK  186  A    between atoms: _427  and  _428
REMARK  187  A    between atoms: _427  and  _430
REMARK  188  A    between atoms: _430  and  _431
REMARK  189  A    between atoms: _434  and  _436
REMARK  190  A    between atoms: _436  and  _437
REMARK  191  A    between atoms: _436  and  _439
REMARK  192  A    between atoms: _439  and  _440
REMARK  193  A    between atoms: _440  and  _441
REMARK  194  A    between atoms: _441  and  _442
REMARK  195  A    between atoms: _451  and  _453
REMARK  196  A    between atoms: _453  and  _454
REMARK  197  A    between atoms: _453  and  _456
REMARK  198  A    between atoms: _456  and  _457
REMARK  199  A    between atoms: _460  and  _462
REMARK  200  A    between atoms: _462  and  _463
REMARK  201  A    between atoms: _462  and  _465
REMARK  202  A    between atoms: _465  and  _466
REMARK  203  A    between atoms: _469  and  _471
REMARK  204  A    between atoms: _471  and  _472
REMARK  205  A    between atoms: _471  and  _474
REMARK  206  A    between atoms: _474  and  _475
REMARK  207  A    between atoms: _477  and  _479
REMARK  208  A    between atoms: _479  and  _480
REMARK  209  A    between atoms: _483  and  _485
REMARK  210  A    between atoms: _485  and  _486
REMARK  211  A    between atoms: _485  and  _488
REMARK  212  A    between atoms: _488  and  _489
REMARK  213  A    between atoms: _494  and  _496
REMARK  214  A    between atoms: _496  and  _497
REMARK  215  A    between atoms: _496  and  _499
REMARK  216  A    between atoms: _499  and  _500
REMARK  217  A    between atoms: _503  and  _505
REMARK  218  A    between atoms: _505  and  _506
REMARK  219  A    between atoms: _508  and  _510
REMARK  220  A    between atoms: _510  and  _511
REMARK  221  A    between atoms: _510  and  _513
REMARK  222  A    between atoms: _513  and  _514
REMARK  223  A    between atoms: _514  and  _515
REMARK  224  A    between atoms: _518  and  _520
REMARK  225  A    between atoms: _520  and  _521
REMARK  226  A    between atoms: _520  and  _523
REMARK  227  A    between atoms: _523  and  _524
REMARK  228  A    between atoms: _527  and  _529
REMARK  229  A    between atoms: _529  and  _530
REMARK  230  A    between atoms: _529  and  _532
REMARK  231  A    between atoms: _532  and  _533
REMARK  232  A    between atoms: _533  and  _534
REMARK  233  A    between atoms: _534  and  _535
REMARK                            x       y       z     vdW  Elec       q    Type
REMARK                         _______ _______ _______ _____ _____    ______ ____
ROOT
ATOM      1  CA  VAL A   1      -9.291  19.134  20.557  0.00  0.00    +0.133 C 
ENDROOT
BRANCH   1   2
ATOM      2  CB  VAL A   1      -9.072  18.775  19.087  0.00  0.00    +0.023 C 
ATOM      3  CG2 VAL A   1      -7.575  18.731  18.826  0.00  0.00    +0.002 C 
ATOM      4  CG1 VAL A   1      -9.760  19.856  18.216  0.00  0.00    +0.002 C 
ENDBRANCH   1   2
BRANCH   1   5
ATOM      5  N   VAL A   1      -8.603  18.159  21.437  0.00  0.00    -0.239 NA
ATOM      6  H   VAL A   1      -8.499  17.169  21.137  0.00  0.00    +0.142 HD
ENDBRANCH   1   5
BRANCH   1   7
ATOM      7  C   VAL A   1     -10.748  19.152  20.817  0.00  0.00    +0.224 C 
ATOM      8  O   VAL A   1     -11.390  18.090  20.863  0.00  0.00    -0.287 OA
ENDBRANCH   1   7
TORSDOF 3
REMARK  Name = ../refined-set-2016/4ncn/4ncn_pocket.pdb
REMARK  233 active torsions:
REMARK  status: ('A' for Active; 'I' for Inactive)
REMARK    1  A    between atoms: _1  and  _3
REMARK    2  A    between atoms: _3  and  _4
REMARK    3  A    between atoms: _3  and  _6
REMARK    4  A    between atoms: _6  and  _7
REMARK    5  A    between atoms: _10  and  _12
REMARK    6  A    between atoms: _12  and  _13
REMARK    7  A    between atoms: _12  and  _15
REMARK    8  A    between atoms: _15  and  _16
REMARK    9  A    between atoms: _19  and  _21
REMARK   10  A    between atoms: _21  and  _22
REMARK   11  A    between atoms: _24  and  _26
REMARK   12  A    between atoms: _26  and  _27
REMARK   13  A    between atoms: _26  and  _29
REMARK   14  A    between atoms: _29  and  _30
REMARK   15  A    between atoms: _35  and  _37
REMARK   16  A    between atoms: _37  and  _38
REMARK   17  A    between atoms: _37  and  _40
REMARK   18  A    between atoms: _43  and  _45
REMARK   19  A    between atoms: _45  and  _46
REMARK   20  A    between atoms: _45  and  _48
REMARK   21  A    between atoms: _48  and  _49
REMARK   22  A    between atoms: _52  and  _54
REMARK   23  A    between atoms: _54  and  _55
REMARK   24  A    between atoms: _54  and  _57
REMARK   25  A    between atoms: _57  and  _58
REMARK   26  A    between atoms: _61  and  _63
REMARK   27  A    between atoms: _63  and  _64
REMARK   28  A    between atoms: _66  and  _68
REMARK   29  A    between atoms: _68  and  _69
REMARK   30  A    between atoms: _68  and  _71
REMARK   31  A    between atoms: _71  and  _72
REMARK   32  A    between atoms: _72  and  _73
REMARK   33  A    between atoms: _73  and  _74
REMARK   34  A    between atoms: _74  and  _75
REMARK   35  A    between atoms: _79  and  _81
REMARK   36  A    between atoms: _81  and  _82
REMARK   37  A    between atoms: _81  and  _84
REMARK   38  A    between atoms: _84  and  _85
REMARK   39  A    between atoms: _88  and  _90
REMARK   40  A    between atoms: _90  and  _91
REMARK   41  A    between atoms: _90  and  _93
REMARK   42  A    between atoms: _93  and  _94
REMARK   43  A    between atoms: _94  and  _95
REMARK   44  A    between atoms: _95  and  _96
REMARK   45  A    between atoms: _96  and  _97
REMARK   46  A    between atoms: _101  and  _103
REMARK   47  A    between atoms: _103  and  _104
REMARK   48  A    between atoms: _103  and  _106
REMARK   49  A    between atoms: _106  and  _107
REMARK   50  A    between atoms: _110  and  _112
REMARK   51  A    between atoms: _112  and  _113
REMARK   52  A    between atoms: _112  and  _115
REMARK   53  A    between atoms: _115  and  _116
REMARK   54  A    between atoms: _119  and  _121
REMARK   55  A    between atoms: _121  and  _122
REMARK   56  A    between atoms: _121  and  _124
REMARK   57  A    between atoms: _124  and  _125
REMARK   58  A    between atoms: _128  and  _130
REMARK   59  A    between atoms: _130  and  _131
REMARK   60  A    between atoms: _130  and  _133
REMARK   61  A    between atoms: _133  and  _134
REMARK   62  A    between atoms: _134  and  _135
REMARK   63  A    between atoms: _135  and  _136
REMARK   64  A    between atoms: _136  and  _137
REMARK   65  A    between atoms: _141  and  _143
REMARK   66  A    between atoms: _143  and  _144
REMARK   67  A    between atoms: _143  and  _146
REMARK   68  A    between atoms: _146  and  _147
REMARK   69  A    between atoms: _147  and  _148
REMARK   70  A    between atoms: _148  and  _149
REMARK   71  A    between atoms: _158  and  _160
REMARK   72  A    between atoms: _160  and  _161
REMARK   73  A    between atoms: _160  and  _163
REMARK   74  A    between atoms: _166  and  _168
REMARK   75  A    between atoms: _168  and  _169
REMARK   76  A    between atoms: _168  and  _171
REMARK   77  A    between atoms: _171  and  _172
REMARK   78  A    between atoms: _172  and  _173
REMARK   79  A    between atoms: _178  and  _180
REMARK   80  A    between atoms: _180  and  _181
REMARK   81  A    between atoms: _180  and  _183
REMARK   82  A    between atoms: _183  and  _184
REMARK   83  A    between atoms: _184  and  _185
REMARK   84  A    between atoms: _188  and  _190
REMARK   85  A    between atoms: _190  and  _191
REMARK   86  A    between atoms: _190  and  _193
REMARK   87  A    between atoms: _193  and  _194
REMARK   88  A    between atoms: _194  and  _195
REMARK   89  A    between atoms: _198  and  _200
REMARK   90  A    between atoms: _200  and  _201
REMARK   91  A    between atoms: _204  and  _206
REMARK   92  A    between atoms: _206  and  _207
REMARK   93  A    between atoms: _209  and  _211
REMARK   94  A    between atoms: _211  and  _212
REMARK   95  A    between atoms: _212  and  _213
REMARK   96  A    between atoms: _212  and  _214
REMARK   97  A    between atoms: _214  and  _216
REMARK   98  A    between atoms: _216  and  _217
REMARK   99  A    between atoms: _216  and  _219
REMARK  100  A    between atoms: _219  and  _220
REMARK  101  A    between atoms: _223  and  _225
REMARK  102  A    between atoms: _225  and  _226
REMARK  103  A    between atoms: _225  and  _228
REMARK  104  A    between atoms: _228  and  _229
REMARK  105  A    between atoms: _232  and  _234
REMARK  106  A    between atoms: _234  and  _235
REMARK  107  A    between atoms: _234  and  _237
REMARK  108  A    between atoms: _237  and  _238
REMARK  109  A    between atoms: _238  and  _239
REMARK  110  A    between atoms: _244  and  _246
REMARK  111  A    between atoms: _246  and  _247
REMARK  112  A    between atoms: _246  and  _249
REMARK  113  A    between atoms: _249  and  _250
REMARK  114  A    between atoms: _250  and  _251
REMARK  115  A    between atoms: _256  and  _258
REMARK  116  A    between atoms: _258  and  _259
REMARK  117  A    between atoms: _258  and  _261
REMARK  118  A    between atoms: _261  and  _262
REMARK  119  A    between atoms: _265  and  _267
REMARK  120  A    between atoms: _267  and  _268
REMARK  121  A    between atoms: _267  and  _270
REMARK  122  A    between atoms: _270  and  _271
REMARK  123  A    between atoms: _275  and  _276
REMARK  124  A    between atoms: _281  and  _283
REMARK  125  A    between atoms: _283  and  _284
REMARK  126  A    between atoms: _286  and  _288
REMARK  127  A    between atoms: _288  and  _289
REMARK  128  A    between atoms: _288  and  _291
REMARK  129  A    between atoms: _291  and  _292
REMARK  130  A    between atoms: _297  and  _299
REMARK  131  A    between atoms: _299  and  _300
REMARK  132  A    between atoms: _299  and  _302
REMARK  133  A    between atoms: _302  and  _303
REMARK  134  A    between atoms: _303  and  _304
REMARK  135  A    between atoms: _307  and  _309
REMARK  136  A    between atoms: _309  and  _310
REMARK  137  A    between atoms: _309  and  _312
REMARK  138  A    between atoms: _312  and  _313
REMARK  139  A    between atoms: _319  and  _321
REMARK  140  A    between atoms: _321  and  _322
REMARK  141  A    between atoms: _321  and  _324
REMARK  142  A    between atoms: _324  and  _325
REMARK  143  A    between atoms: _325  and  _326
REMARK  144  A    between atoms: _326  and  _327
REMARK  145  A    between atoms: _336  and  _338
REMARK  146  A    between atoms: _338  and  _339
REMARK  147  A    between atoms: _338  and  _341
REMARK  148  A    between atoms: _344  and  _346
REMARK  149  A    between atoms: _346  and  _347
REMARK  150  A    between atoms: _346  and  _349
REMARK  151  A    between atoms: _349  and  _350
REMARK  152  A    between atoms: _353  and  _355
REMARK  153  A    between atoms: _355  and  _356
REMARK  154  A    between atoms: _355  and  _358
REMARK  155  A    between atoms: _358  and  _359
REMARK  156  A    between atoms: _362  and  _364
REMARK  157  A    between atoms: _364  and  _365
REMARK  158  A    between atoms: _364  and  _367
REMARK  159  A    between atoms: _367  and  _368
REMARK  160  A    between atoms: _368  and  _369
REMARK  161  A    between atoms: _371  and  _373
REMARK  162  A    between atoms: _373  and  _374
REMARK  163  A    between atoms: _373  and  _376
REMARK  164  A    between atoms: _376  and  _377
REMARK  165  A    between atoms: _377  and  _378
REMARK  166  A    between atoms: _383  and  _385
REMARK  167  A    between atoms: _385  and  _386
REMARK  168  A    between atoms: _385  and  _388
REMARK  169  A    between atoms: _388  and  _389
REMARK  170  A    between atoms: _392  and  _394
REMARK  171  A    between atoms: _394  and  _395
REMARK  172  A    between atoms: _394  and  _397
REMARK  173  A    between atoms: _397  and  _398
REMARK  174  A    between atoms: _403  and  _405
REMARK  175  A    between atoms: _405  and  _406
REMARK  176  A    between atoms: _405  and  _408
REMARK  177  A    between atoms: _408  and  _409
REMARK  178  A    between atoms: _409  and  _410
REMARK  179  A    between atoms: _410  and  _411
REMARK  180  A    between atoms: _411  and  _412
REMARK  181  A    between atoms: _416  and  _418
REMARK  182  A    between atoms: _418  and  _419
REMARK  183  A    between atoms: _418  and  _421
REMARK  184  A    between atoms: _421  and  _422
REMARK  185  A    between atoms: _425  and  _427
REMARK  186  A    between atoms: _427  and  _428
REMARK  187  A    between atoms: _427  and  _430
REMARK  188  A    between atoms: _430  and  _431
REMARK  189  A    between atoms: _434  and  _436
REMARK  190  A    between atoms: _436  and  _437
REMARK  191  A    between atoms: _436  and  _439
REMARK  192  A    between atoms: _439  and  _440
REMARK  193  A    between atoms: _440  and  _441
REMARK  194  A    between atoms: _441  and  _442
REMARK  195  A    between atoms: _451  and  _453
REMARK  196  A    between atoms: _453  and  _454
REMARK  197  A    between atoms: _453  and  _456
REMARK  198  A    between atoms: _456  and  _457
REMARK  199  A    between atoms: _460  and  _462
REMARK  200  A    between atoms: _462  and  _463
REMARK  201  A    between atoms: _462  and  _465
REMARK  202  A    between atoms: _465  and  _466
REMARK  203  A    between atoms: _469  and  _471
REMARK  204  A    between atoms: _471  and  _472
REMARK  205  A    between atoms: _471  and  _474
REMARK  206  A    between atoms: _474  and  _475
REMARK  207  A    between atoms: _477  and  _479
REMARK  208  A    between atoms: _479  and  _480
REMARK  209  A    between atoms: _483  and  _485
REMARK  210  A    between atoms: _485  and  _486
REMARK  211  A    between atoms: _485  and  _488
REMARK  212  A    between atoms: _488  and  _489
REMARK  213  A    between atoms: _494  and  _496
REMARK  214  A    between atoms: _496  and  _497
REMARK  215  A    between atoms: _496  and  _499
REMARK  216  A    between atoms: _499  and  _500
REMARK  217  A    between atoms: _503  and  _505
REMARK  218  A    between atoms: _505  and  _506
REMARK  219  A    between atoms: _508  and  _510
REMARK  220  A    between atoms: _510  and  _511
REMARK  221  A    between atoms: _510  and  _513
REMARK  222  A    between atoms: _513  and  _514
REMARK  223  A    between atoms: _514  and  _515
REMARK  224  A    between atoms: _518  and  _520
REMARK  225  A    between atoms: _520  and  _521
REMARK  226  A    between atoms: _520  and  _523
REMARK  227  A    between atoms: _523  and  _524
REMARK  228  A    between atoms: _527  and  _529
REMARK  229  A    between atoms: _529  and  _530
REMARK  230  A    between atoms: _529  and  _532
REMARK  231  A    between atoms: _532  and  _533
REMARK  232  A    between atoms: _533  and  _534
REMARK  233  A    between atoms: _534  and  _535
REMARK                            x       y       z     vdW  Elec       q    Type
REMARK                         _______ _______ _______ _____ _____    ______ ____
ROOT
ATOM      1  CA  ILE A   2     -15.854  25.495  20.288  0.00  0.00    +0.148 C 
ENDROOT
BRANCH   1   4
ATOM      2  C   ASP A   1     -15.706  23.226  19.526  0.00  0.00    +0.239 C 
ATOM      3  O   ASP A   1     -16.650  22.921  20.292  0.00  0.00    -0.274 OA
ATOM      4  N   ILE A   2     -15.278  24.481  19.410  0.00  0.00    -0.297 N 
ATOM      5  H   ILE A   2     -14.551  24.733  18.711  0.00  0.00    +0.150 HD
BRANCH   2   6
ATOM      6  CA  ASP A   1     -15.007  22.209  18.663  0.00  0.00    +0.156 C 
BRANCH   6   7
ATOM      7  N   ASP A   1     -14.391  21.246  19.564  0.00  0.00    -0.238 NA
ATOM      8  H   ASP A   1     -14.810  20.298  19.653  0.00  0.00    +0.142 HD
ENDBRANCH   6   7
BRANCH   6   9
ATOM      9  CB  ASP A   1     -15.975  21.494  17.675  0.00  0.00    +0.140 C 
BRANCH   9  10
ATOM     10  CG  ASP A   1     -16.676  22.450  16.709  0.00  0.00    +0.367 C 
ATOM     11  OD2 ASP A   1     -16.670  23.678  16.921  0.00  0.00    -0.246 OA
ATOM     12  OD1 ASP A   1     -17.270  21.993  15.712  0.00  0.00    -0.246 OA
ENDBRANCH   9  10
ENDBRANCH   6   9
ENDBRANCH   2   6
ENDBRANCH   1   4
BRANCH   1  13
ATOM     13  C   ILE A   2     -17.361  25.683  20.066  0.00  0.00    +0.241 C 
ATOM     14  O   ILE A   2     -18.084  26.137  20.959  0.00  0.00    -0.273 OA
ATOM     15  N   MET A   3     -17.842  25.313  18.889  0.00  0.00    -0.298 N 
ATOM     16  H   MET A   3     -17.206  24.896  18.179  0.00  0.00    +0.150 HD
BRANCH  15  17
ATOM     17  CA  MET A   3     -19.248  25.484  18.582  0.00  0.00    +0.138 C 
BRANCH  17  18
ATOM     18  C   MET A   3     -20.042  24.354  19.216  0.00  0.00    +0.227 C 
ATOM     19  O   MET A   3     -21.205  24.529  19.426  0.00  0.00    -0.286 OA
ENDBRANCH  17  18
BRANCH  17  20
ATOM     20  CB  MET A   3     -19.465  25.520  17.060  0.00  0.00    +0.039 C 
BRANCH  20  21
ATOM     21  CG  MET A   3     -18.563  26.579  16.358  0.00  0.00    +0.060 C 
BRANCH  21  22
ATOM     22  SD  MET A   3     -18.944  28.232  17.025  0.00  0.00    -0.139 S 
ATOM     23  CE  MET A   3     -20.596  28.515  16.347  0.00  0.00    +0.069 C 
ENDBRANCH  21  22
ENDBRANCH  20  21
ENDBRANCH  17  20
ENDBRANCH  15  17
ENDBRANCH   1  13
BRANCH   1  24
ATOM     24  CB  ILE A   2     -15.109  26.876  20.120  0.00  0.00    +0.027 C 
ATOM     25  CG2 ILE A   2     -15.402  27.446  18.772  0.00  0.00    +0.002 C 
BRANCH  24  26
ATOM     26  CG1 ILE A   2     -15.530  27.872  21.247  0.00  0.00    +0.002 C 
ATOM     27  CD1 ILE A   2     -14.601  29.141  21.281  0.00  0.00    +0.000 C 
ENDBRANCH  24  26
ENDBRANCH   1  24
TORSDOF 13
REMARK  Name = ../refined-set-2016/4ncn/4ncn_pocket.pdb
REMARK  233 active torsions:
REMARK  status: ('A' for Active; 'I' for Inactive)
REMARK    1  A    between atoms: _1  and  _3
REMARK    2  A    between atoms: _3  and  _4
REMARK    3  A    between atoms: _3  and  _6
REMARK    4  A    between atoms: _6  and  _7
REMARK    5  A    between atoms: _10  and  _12
REMARK    6  A    between atoms: _12  and  _13
REMARK    7  A    between atoms: _12  and  _15
REMARK    8  A    between atoms: _15  and  _16
REMARK    9  A    between atoms: _19  and  _21
REMARK   10  A    between atoms: _21  and  _22
REMARK   11  A    between atoms: _24  and  _26
REMARK   12  A    between atoms: _26  and  _27
REMARK   13  A    between atoms: _26  and  _29
REMARK   14  A    between atoms: _29  and  _30
REMARK   15  A    between atoms: _35  and  _37
REMARK   16  A    between atoms: _37  and  _38
REMARK   17  A    between atoms: _37  and  _40
REMARK   18  A    between atoms: _43  and  _45
REMARK   19  A    between atoms: _45  and  _46
REMARK   20  A    between atoms: _45  and  _48
REMARK   21  A    between atoms: _48  and  _49
REMARK   22  A    between atoms: _52  and  _54
REMARK   23  A    between atoms: _54  and  _55
REMARK   24  A    between atoms: _54  and  _57
REMARK   25  A    between atoms: _57  and  _58
REMARK   26  A    between atoms: _61  and  _63
REMARK   27  A    between atoms: _63  and  _64
REMARK   28  A    between atoms: _66  and  _68
REMARK   29  A    between atoms: _68  and  _69
REMARK   30  A    between atoms: _68  and  _71
REMARK   31  A    between atoms: _71  and  _72
REMARK   32  A    between atoms: _72  and  _73
REMARK   33  A    between atoms: _73  and  _74
REMARK   34  A    between atoms: _74  and  _75
REMARK   35  A    between atoms: _79  and  _81
REMARK   36  A    between atoms: _81  and  _82
REMARK   37  A    between atoms: _81  and  _84
REMARK   38  A    between atoms: _84  and  _85
REMARK   39  A    between atoms: _88  and  _90
REMARK   40  A    between atoms: _90  and  _91
REMARK   41  A    between atoms: _90  and  _93
REMARK   42  A    between atoms: _93  and  _94
REMARK   43  A    between atoms: _94  and  _95
REMARK   44  A    between atoms: _95  and  _96
REMARK   45  A    between atoms: _96  and  _97
REMARK   46  A    between atoms: _101  and  _103
REMARK   47  A    between atoms: _103  and  _104
REMARK   48  A    between atoms: _103  and  _106
REMARK   49  A    between atoms: _106  and  _107
REMARK   50  A    between atoms: _110  and  _112
REMARK   51  A    between atoms: _112  and  _113
REMARK   52  A    between atoms: _112  and  _115
REMARK   53  A    between atoms: _115  and  _116
REMARK   54  A    between atoms: _119  and  _121
REMARK   55  A    between atoms: _121  and  _122
REMARK   56  A    between atoms: _121  and  _124
REMARK   57  A    between atoms: _124  and  _125
REMARK   58  A    between atoms: _128  and  _130
REMARK   59  A    between atoms: _130  and  _131
REMARK   60  A    between atoms: _130  and  _133
REMARK   61  A    between atoms: _133  and  _134
REMARK   62  A    between atoms: _134  and  _135
REMARK   63  A    between atoms: _135  and  _136
REMARK   64  A    between atoms: _136  and  _137
REMARK   65  A    between atoms: _141  and  _143
REMARK   66  A    between atoms: _143  and  _144
REMARK   67  A    between atoms: _143  and  _146
REMARK   68  A    between atoms: _146  and  _147
REMARK   69  A    between atoms: _147  and  _148
REMARK   70  A    between atoms: _148  and  _149
REMARK   71  A    between atoms: _158  and  _160
REMARK   72  A    between atoms: _160  and  _161
REMARK   73  A    between atoms: _160  and  _163
REMARK   74  A    between atoms: _166  and  _168
REMARK   75  A    between atoms: _168  and  _169
REMARK   76  A    between atoms: _168  and  _171
REMARK   77  A    between atoms: _171  and  _172
REMARK   78  A    between atoms: _172  and  _173
REMARK   79  A    between atoms: _178  and  _180
REMARK   80  A    between atoms: _180  and  _181
REMARK   81  A    between atoms: _180  and  _183
REMARK   82  A    between atoms: _183  and  _184
REMARK   83  A    between atoms: _184  and  _185
REMARK   84  A    between atoms: _188  and  _190
REMARK   85  A    between atoms: _190  and  _191
REMARK   86  A    between atoms: _190  and  _193
REMARK   87  A    between atoms: _193  and  _194
REMARK   88  A    between atoms: _194  and  _195
REMARK   89  A    between atoms: _198  and  _200
REMARK   90  A    between atoms: _200  and  _201
REMARK   91  A    between atoms: _204  and  _206
REMARK   92  A    between atoms: _206  and  _207
REMARK   93  A    between atoms: _209  and  _211
REMARK   94  A    between atoms: _211  and  _212
REMARK   95  A    between atoms: _212  and  _213
REMARK   96  A    between atoms: _212  and  _214
REMARK   97  A    between atoms: _214  and  _216
REMARK   98  A    between atoms: _216  and  _217
REMARK   99  A    between atoms: _216  and  _219
REMARK  100  A    between atoms: _219  and  _220
REMARK  101  A    between atoms: _223  and  _225
REMARK  102  A    between atoms: _225  and  _226
REMARK  103  A    between atoms: _225  and  _228
REMARK  104  A    between atoms: _228  and  _229
REMARK  105  A    between atoms: _232  and  _234
REMARK  106  A    between atoms: _234  and  _235
REMARK  107  A    between atoms: _234  and  _237
REMARK  108  A    between atoms: _237  and  _238
REMARK  109  A    between atoms: _238  and  _239
REMARK  110  A    between atoms: _244  and  _246
REMARK  111  A    between atoms: _246  and  _247
REMARK  112  A    between atoms: _246  and  _249
REMARK  113  A    between atoms: _249  and  _250
REMARK  114  A    between atoms: _250  and  _251
REMARK  115  A    between atoms: _256  and  _258
REMARK  116  A    between atoms: _258  and  _259
REMARK  117  A    between atoms: _258  and  _261
REMARK  118  A    between atoms: _261  and  _262
REMARK  119  A    between atoms: _265  and  _267
REMARK  120  A    between atoms: _267  and  _268
REMARK  121  A    between atoms: _267  and  _270
REMARK  122  A    between atoms: _270  and  _271
REMARK  123  A    between atoms: _275  and  _276
REMARK  124  A    between atoms: _281  and  _283
REMARK  125  A    between atoms: _283  and  _284
REMARK  126  A    between atoms: _286  and  _288
REMARK  127  A    between atoms: _288  and  _289
REMARK  128  A    between atoms: _288  and  _291
REMARK  129  A    between atoms: _291  and  _292
REMARK  130  A    between atoms: _297  and  _299
REMARK  131  A    between atoms: _299  and  _300
REMARK  132  A    between atoms: _299  and  _302
REMARK  133  A    between atoms: _302  and  _303
REMARK  134  A    between atoms: _303  and  _304
REMARK  135  A    between atoms: _307  and  _309
REMARK  136  A    between atoms: _309  and  _310
REMARK  137  A    between atoms: _309  and  _312
REMARK  138  A    between atoms: _312  and  _313
REMARK  139  A    between atoms: _319  and  _321
REMARK  140  A    between atoms: _321  and  _322
REMARK  141  A    between atoms: _321  and  _324
REMARK  142  A    between atoms: _324  and  _325
REMARK  143  A    between atoms: _325  and  _326
REMARK  144  A    between atoms: _326  and  _327
REMARK  145  A    between atoms: _336  and  _338
REMARK  146  A    between atoms: _338  and  _339
REMARK  147  A    between atoms: _338  and  _341
REMARK  148  A    between atoms: _344  and  _346
REMARK  149  A    between atoms: _346  and  _347
REMARK  150  A    between atoms: _346  and  _349
REMARK  151  A    between atoms: _349  and  _350
REMARK  152  A    between atoms: _353  and  _355
REMARK  153  A    between atoms: _355  and  _356
REMARK  154  A    between atoms: _355  and  _358
REMARK  155  A    between atoms: _358  and  _359
REMARK  156  A    between atoms: _362  and  _364
REMARK  157  A    between atoms: _364  and  _365
REMARK  158  A    between atoms: _364  and  _367
REMARK  159  A    between atoms: _367  and  _368
REMARK  160  A    between atoms: _368  and  _369
REMARK  161  A    between atoms: _371  and  _373
REMARK  162  A    between atoms: _373  and  _374
REMARK  163  A    between atoms: _373  and  _376
REMARK  164  A    between atoms: _376  and  _377
REMARK  165  A    between atoms: _377  and  _378
REMARK  166  A    between atoms: _383  and  _385
REMARK  167  A    between atoms: _385  and  _386
REMARK  168  A    between atoms: _385  and  _388
REMARK  169  A    between atoms: _388  and  _389
REMARK  170  A    between atoms: _392  and  _394
REMARK  171  A    between atoms: _394  and  _395
REMARK  172  A    between atoms: _394  and  _397
REMARK  173  A    between atoms: _397  and  _398
REMARK  174  A    between atoms: _403  and  _405
REMARK  175  A    between atoms: _405  and  _406
REMARK  176  A    between atoms: _405  and  _408
REMARK  177  A    between atoms: _408  and  _409
REMARK  178  A    between atoms: _409  and  _410
REMARK  179  A    between atoms: _410  and  _411
REMARK  180  A    between atoms: _411  and  _412
REMARK  181  A    between atoms: _416  and  _418
REMARK  182  A    between atoms: _418  and  _419
REMARK  183  A    between atoms: _418  and  _421
REMARK  184  A    between atoms: _421  and  _422
REMARK  185  A    between atoms: _425  and  _427
REMARK  186  A    between atoms: _427  and  _428
REMARK  187  A    between atoms: _427  and  _430
REMARK  188  A    between atoms: _430  and  _431
REMARK  189  A    between atoms: _434  and  _436
REMARK  190  A    between atoms: _436  and  _437
REMARK  191  A    between atoms: _436  and  _439
REMARK  192  A    between atoms: _439  and  _440
REMARK  193  A    between atoms: _440  and  _441
REMARK  194  A    between atoms: _441  and  _442
REMARK  195  A    between atoms: _451  and  _453
REMARK  196  A    between atoms: _453  and  _454
REMARK  197  A    between atoms: _453  and  _456
REMARK  198  A    between atoms: _456  and  _457
REMARK  199  A    between atoms: _460  and  _462
REMARK  200  A    between atoms: _462  and  _463
REMARK  201  A    between atoms: _462  and  _465
REMARK  202  A    between atoms: _465  and  _466
REMARK  203  A    between atoms: _469  and  _471
REMARK  204  A    between atoms: _471  and  _472
REMARK  205  A    between atoms: _471  and  _474
REMARK  206  A    between atoms: _474  and  _475
REMARK  207  A    between atoms: _477  and  _479
REMARK  208  A    between atoms: _479  and  _480
REMARK  209  A    between atoms: _483  and  _485
REMARK  210  A    between atoms: _485  and  _486
REMARK  211  A    between atoms: _485  and  _488
REMARK  212  A    between atoms: _488  and  _489
REMARK  213  A    between atoms: _494  and  _496
REMARK  214  A    between atoms: _496  and  _497
REMARK  215  A    between atoms: _496  and  _499
REMARK  216  A    between atoms: _499  and  _500
REMARK  217  A    between atoms: _503  and  _505
REMARK  218  A    between atoms: _505  and  _506
REMARK  219  A    between atoms: _508  and  _510
REMARK  220  A    between atoms: _510  and  _511
REMARK  221  A    between atoms: _510  and  _513
REMARK  222  A    between atoms: _513  and  _514
REMARK  223  A    between atoms: _514  and  _515
REMARK  224  A    between atoms: _518  and  _520
REMARK  225  A    between atoms: _520  and  _521
REMARK  226  A    between atoms: _520  and  _523
REMARK  227  A    between atoms: _523  and  _524
REMARK  228  A    between atoms: _527  and  _529
REMARK  229  A    between atoms: _529  and  _530
REMARK  230  A    between atoms: _529  and  _532
REMARK  231  A    between atoms: _532  and  _533
REMARK  232  A    between atoms: _533  and  _534
REMARK  233  A    between atoms: _534  and  _535
REMARK                            x       y       z     vdW  Elec       q    Type
REMARK                         _______ _______ _______ _____ _____    ______ ____
ROOT
ATOM      1  CB  GLN A   1     -14.842  10.482  20.973  0.00  0.00    +0.035 C 
ENDROOT
BRANCH   1   2
ATOM      2  CA  GLN A   1     -15.353  10.795  22.385  0.00  0.00    +0.134 C 
BRANCH   2   3
ATOM      3  N   GLN A   1     -16.768  11.241  22.390  0.00  0.00    -0.239 NA
ATOM      4  H   GLN A   1     -17.194  11.652  21.535  0.00  0.00    +0.142 HD
ENDBRANCH   2   3
BRANCH   2   5
ATOM      5  C   GLN A   1     -14.407  11.793  23.065  0.00  0.00    +0.224 C 
ATOM      6  O   GLN A   1     -13.223  11.456  23.359  0.00  0.00    -0.287 OA
ENDBRANCH   2   5
ENDBRANCH   1   2
BRANCH   1   7
ATOM      7  CG  GLN A   1     -15.137   8.977  20.517  0.00  0.00    +0.087 C 
BRANCH   7   8
ATOM      8  CD  GLN A   1     -16.631   8.650  20.598  0.00  0.00    +0.219 C 
ATOM      9  NE2 GLN A   1     -16.998   7.668  21.445  0.00  0.00    -0.329 N 
ATOM     10 HE21 GLN A   1     -16.276   7.151  21.986  0.00  0.00    +0.145 HD
ATOM     11 HE22 GLN A   1     -18.003   7.427  21.557  0.00  0.00    +0.145 HD
ATOM     12  OE1 GLN A   1     -17.458   9.297  19.928  0.00  0.00    -0.275 OA
ENDBRANCH   7   8
ENDBRANCH   1   7
TORSDOF 5
REMARK  Name = ../refined-set-2016/4ncn/4ncn_pocket.pdb
REMARK  233 active torsions:
REMARK  status: ('A' for Active; 'I' for Inactive)
REMARK    1  A    between atoms: _1  and  _3
REMARK    2  A    between atoms: _3  and  _4
REMARK    3  A    between atoms: _3  and  _6
REMARK    4  A    between atoms: _6  and  _7
REMARK    5  A    between atoms: _10  and  _12
REMARK    6  A    between atoms: _12  and  _13
REMARK    7  A    between atoms: _12  and  _15
REMARK    8  A    between atoms: _15  and  _16
REMARK    9  A    between atoms: _19  and  _21
REMARK   10  A    between atoms: _21  and  _22
REMARK   11  A    between atoms: _24  and  _26
REMARK   12  A    between atoms: _26  and  _27
REMARK   13  A    between atoms: _26  and  _29
REMARK   14  A    between atoms: _29  and  _30
REMARK   15  A    between atoms: _35  and  _37
REMARK   16  A    between atoms: _37  and  _38
REMARK   17  A    between atoms: _37  and  _40
REMARK   18  A    between atoms: _43  and  _45
REMARK   19  A    between atoms: _45  and  _46
REMARK   20  A    between atoms: _45  and  _48
REMARK   21  A    between atoms: _48  and  _49
REMARK   22  A    between atoms: _52  and  _54
REMARK   23  A    between atoms: _54  and  _55
REMARK   24  A    between atoms: _54  and  _57
REMARK   25  A    between atoms: _57  and  _58
REMARK   26  A    between atoms: _61  and  _63
REMARK   27  A    between atoms: _63  and  _64
REMARK   28  A    between atoms: _66  and  _68
REMARK   29  A    between atoms: _68  and  _69
REMARK   30  A    between atoms: _68  and  _71
REMARK   31  A    between atoms: _71  and  _72
REMARK   32  A    between atoms: _72  and  _73
REMARK   33  A    between atoms: _73  and  _74
REMARK   34  A    between atoms: _74  and  _75
REMARK   35  A    between atoms: _79  and  _81
REMARK   36  A    between atoms: _81  and  _82
REMARK   37  A    between atoms: _81  and  _84
REMARK   38  A    between atoms: _84  and  _85
REMARK   39  A    between atoms: _88  and  _90
REMARK   40  A    between atoms: _90  and  _91
REMARK   41  A    between atoms: _90  and  _93
REMARK   42  A    between atoms: _93  and  _94
REMARK   43  A    between atoms: _94  and  _95
REMARK   44  A    between atoms: _95  and  _96
REMARK   45  A    between atoms: _96  and  _97
REMARK   46  A    between atoms: _101  and  _103
REMARK   47  A    between atoms: _103  and  _104
REMARK   48  A    between atoms: _103  and  _106
REMARK   49  A    between atoms: _106  and  _107
REMARK   50  A    between atoms: _110  and  _112
REMARK   51  A    between atoms: _112  and  _113
REMARK   52  A    between atoms: _112  and  _115
REMARK   53  A    between atoms: _115  and  _116
REMARK   54  A    between atoms: _119  and  _121
REMARK   55  A    between atoms: _121  and  _122
REMARK   56  A    between atoms: _121  and  _124
REMARK   57  A    between atoms: _124  and  _125
REMARK   58  A    between atoms: _128  and  _130
REMARK   59  A    between atoms: _130  and  _131
REMARK   60  A    between atoms: _130  and  _133
REMARK   61  A    between atoms: _133  and  _134
REMARK   62  A    between atoms: _134  and  _135
REMARK   63  A    between atoms: _135  and  _136
REMARK   64  A    between atoms: _136  and  _137
REMARK   65  A    between atoms: _141  and  _143
REMARK   66  A    between atoms: _143  and  _144
REMARK   67  A    between atoms: _143  and  _146
REMARK   68  A    between atoms: _146  and  _147
REMARK   69  A    between atoms: _147  and  _148
REMARK   70  A    between atoms: _148  and  _149
REMARK   71  A    between atoms: _158  and  _160
REMARK   72  A    between atoms: _160  and  _161
REMARK   73  A    between atoms: _160  and  _163
REMARK   74  A    between atoms: _166  and  _168
REMARK   75  A    between atoms: _168  and  _169
REMARK   76  A    between atoms: _168  and  _171
REMARK   77  A    between atoms: _171  and  _172
REMARK   78  A    between atoms: _172  and  _173
REMARK   79  A    between atoms: _178  and  _180
REMARK   80  A    between atoms: _180  and  _181
REMARK   81  A    between atoms: _180  and  _183
REMARK   82  A    between atoms: _183  and  _184
REMARK   83  A    between atoms: _184  and  _185
REMARK   84  A    between atoms: _188  and  _190
REMARK   85  A    between atoms: _190  and  _191
REMARK   86  A    between atoms: _190  and  _193
REMARK   87  A    between atoms: _193  and  _194
REMARK   88  A    between atoms: _194  and  _195
REMARK   89  A    between atoms: _198  and  _200
REMARK   90  A    between atoms: _200  and  _201
REMARK   91  A    between atoms: _204  and  _206
REMARK   92  A    between atoms: _206  and  _207
REMARK   93  A    between atoms: _209  and  _211
REMARK   94  A    between atoms: _211  and  _212
REMARK   95  A    between atoms: _212  and  _213
REMARK   96  A    between atoms: _212  and  _214
REMARK   97  A    between atoms: _214  and  _216
REMARK   98  A    between atoms: _216  and  _217
REMARK   99  A    between atoms: _216  and  _219
REMARK  100  A    between atoms: _219  and  _220
REMARK  101  A    between atoms: _223  and  _225
REMARK  102  A    between atoms: _225  and  _226
REMARK  103  A    between atoms: _225  and  _228
REMARK  104  A    between atoms: _228  and  _229
REMARK  105  A    between atoms: _232  and  _234
REMARK  106  A    between atoms: _234  and  _235
REMARK  107  A    between atoms: _234  and  _237
REMARK  108  A    between atoms: _237  and  _238
REMARK  109  A    between atoms: _238  and  _239
REMARK  110  A    between atoms: _244  and  _246
REMARK  111  A    between atoms: _246  and  _247
REMARK  112  A    between atoms: _246  and  _249
REMARK  113  A    between atoms: _249  and  _250
REMARK  114  A    between atoms: _250  and  _251
REMARK  115  A    between atoms: _256  and  _258
REMARK  116  A    between atoms: _258  and  _259
REMARK  117  A    between atoms: _258  and  _261
REMARK  118  A    between atoms: _261  and  _262
REMARK  119  A    between atoms: _265  and  _267
REMARK  120  A    between atoms: _267  and  _268
REMARK  121  A    between atoms: _267  and  _270
REMARK  122  A    between atoms: _270  and  _271
REMARK  123  A    between atoms: _275  and  _276
REMARK  124  A    between atoms: _281  and  _283
REMARK  125  A    between atoms: _283  and  _284
REMARK  126  A    between atoms: _286  and  _288
REMARK  127  A    between atoms: _288  and  _289
REMARK  128  A    between atoms: _288  and  _291
REMARK  129  A    between atoms: _291  and  _292
REMARK  130  A    between atoms: _297  and  _299
REMARK  131  A    between atoms: _299  and  _300
REMARK  132  A    between atoms: _299  and  _302
REMARK  133  A    between atoms: _302  and  _303
REMARK  134  A    between atoms: _303  and  _304
REMARK  135  A    between atoms: _307  and  _309
REMARK  136  A    between atoms: _309  and  _310
REMARK  137  A    between atoms: _309  and  _312
REMARK  138  A    between atoms: _312  and  _313
REMARK  139  A    between atoms: _319  and  _321
REMARK  140  A    between atoms: _321  and  _322
REMARK  141  A    between atoms: _321  and  _324
REMARK  142  A    between atoms: _324  and  _325
REMARK  143  A    between atoms: _325  and  _326
REMARK  144  A    between atoms: _326  and  _327
REMARK  145  A    between atoms: _336  and  _338
REMARK  146  A    between atoms: _338  and  _339
REMARK  147  A    between atoms: _338  and  _341
REMARK  148  A    between atoms: _344  and  _346
REMARK  149  A    between atoms: _346  and  _347
REMARK  150  A    between atoms: _346  and  _349
REMARK  151  A    between atoms: _349  and  _350
REMARK  152  A    between atoms: _353  and  _355
REMARK  153  A    between atoms: _355  and  _356
REMARK  154  A    between atoms: _355  and  _358
REMARK  155  A    between atoms: _358  and  _359
REMARK  156  A    between atoms: _362  and  _364
REMARK  157  A    between atoms: _364  and  _365
REMARK  158  A    between atoms: _364  and  _367
REMARK  159  A    between atoms: _367  and  _368
REMARK  160  A    between atoms: _368  and  _369
REMARK  161  A    between atoms: _371  and  _373
REMARK  162  A    between atoms: _373  and  _374
REMARK  163  A    between atoms: _373  and  _376
REMARK  164  A    between atoms: _376  and  _377
REMARK  165  A    between atoms: _377  and  _378
REMARK  166  A    between atoms: _383  and  _385
REMARK  167  A    between atoms: _385  and  _386
REMARK  168  A    between atoms: _385  and  _388
REMARK  169  A    between atoms: _388  and  _389
REMARK  170  A    between atoms: _392  and  _394
REMARK  171  A    between atoms: _394  and  _395
REMARK  172  A    between atoms: _394  and  _397
REMARK  173  A    between atoms: _397  and  _398
REMARK  174  A    between atoms: _403  and  _405
REMARK  175  A    between atoms: _405  and  _406
REMARK  176  A    between atoms: _405  and  _408
REMARK  177  A    between atoms: _408  and  _409
REMARK  178  A    between atoms: _409  and  _410
REMARK  179  A    between atoms: _410  and  _411
REMARK  180  A    between atoms: _411  and  _412
REMARK  181  A    between atoms: _416  and  _418
REMARK  182  A    between atoms: _418  and  _419
REMARK  183  A    between atoms: _418  and  _421
REMARK  184  A    between atoms: _421  and  _422
REMARK  185  A    between atoms: _425  and  _427
REMARK  186  A    between atoms: _427  and  _428
REMARK  187  A    between atoms: _427  and  _430
REMARK  188  A    between atoms: _430  and  _431
REMARK  189  A    between atoms: _434  and  _436
REMARK  190  A    between atoms: _436  and  _437
REMARK  191  A    between atoms: _436  and  _439
REMARK  192  A    between atoms: _439  and  _440
REMARK  193  A    between atoms: _440  and  _441
REMARK  194  A    between atoms: _441  and  _442
REMARK  195  A    between atoms: _451  and  _453
REMARK  196  A    between atoms: _453  and  _454
REMARK  197  A    between atoms: _453  and  _456
REMARK  198  A    between atoms: _456  and  _457
REMARK  199  A    between atoms: _460  and  _462
REMARK  200  A    between atoms: _462  and  _463
REMARK  201  A    between atoms: _462  and  _465
REMARK  202  A    between atoms: _465  and  _466
REMARK  203  A    between atoms: _469  and  _471
REMARK  204  A    between atoms: _471  and  _472
REMARK  205  A    between atoms: _471  and  _474
REMARK  206  A    between atoms: _474  and  _475
REMARK  207  A    between atoms: _477  and  _479
REMARK  208  A    between atoms: _479  and  _480
REMARK  209  A    between atoms: _483  and  _485
REMARK  210  A    between atoms: _485  and  _486
REMARK  211  A    between atoms: _485  and  _488
REMARK  212  A    between atoms: _488  and  _489
REMARK  213  A    between atoms: _494  and  _496
REMARK  214  A    between atoms: _496  and  _497
REMARK  215  A    between atoms: _496  and  _499
REMARK  216  A    between atoms: _499  and  _500
REMARK  217  A    between atoms: _503  and  _505
REMARK  218  A    between atoms: _505  and  _506
REMARK  219  A    between atoms: _508  and  _510
REMARK  220  A    between atoms: _510  and  _511
REMARK  221  A    between atoms: _510  and  _513
REMARK  222  A    between atoms: _513  and  _514
REMARK  223  A    between atoms: _514  and  _515
REMARK  224  A    between atoms: _518  and  _520
REMARK  225  A    between atoms: _520  and  _521
REMARK  226  A    between atoms: _520  and  _523
REMARK  227  A    between atoms: _523  and  _524
REMARK  228  A    between atoms: _527  and  _529
REMARK  229  A    between atoms: _529  and  _530
REMARK  230  A    between atoms: _529  and  _532
REMARK  231  A    between atoms: _532  and  _533
REMARK  232  A    between atoms: _533  and  _534
REMARK  233  A    between atoms: _534  and  _535
REMARK                            x       y       z     vdW  Elec       q    Type
REMARK                         _______ _______ _______ _____ _____    ______ ____
ROOT
ATOM      1  CA  ILE A   4     -13.026  29.946  16.198  0.00  0.00    +0.149 C 
ENDROOT
BRANCH   1   3
ATOM      2  C   LYS A   3     -13.465  27.789  15.262  0.00  0.00    +0.241 C 
ATOM      3  N   ILE A   4     -12.553  28.595  15.828  0.00  0.00    -0.297 N 
ATOM      4  H   ILE A   4     -11.574  28.288  15.996  0.00  0.00    +0.150 HD
ATOM      5  O   LYS A   3     -14.570  28.169  15.012  0.00  0.00    -0.273 OA
BRANCH   2   6
ATOM      6  CA  LYS A   3     -13.030  26.406  14.795  0.00  0.00    +0.149 C 
BRANCH   6   9
ATOM      7  C   ASN A   2     -12.198  25.334  16.897  0.00  0.00    +0.241 C 
ATOM      8  O   ASN A   2     -13.302  25.286  17.445  0.00  0.00    -0.273 OA
ATOM      9  N   LYS A   3     -11.999  25.863  15.679  0.00  0.00    -0.297 N 
ATOM     10  H   LYS A   3     -11.019  25.889  15.331  0.00  0.00    +0.150 HD
BRANCH   7  11
ATOM     11  CA  ASN A   2     -10.915  24.835  17.639  0.00  0.00    +0.158 C 
BRANCH  11  14
ATOM     12  C   LEU A   1     -10.862  25.571  19.972  0.00  0.00    +0.238 C 
ATOM     13  O   LEU A   1     -10.705  26.777  19.677  0.00  0.00    -0.274 OA
ATOM     14  N   ASN A   2     -11.092  24.628  19.086  0.00  0.00    -0.297 N 
ATOM     15  H   ASN A   2     -11.412  23.697  19.421  0.00  0.00    +0.150 HD
BRANCH  12  16
ATOM     16  CA  LEU A   1     -10.730  25.126  21.404  0.00  0.00    +0.145 C 
BRANCH  16  17
ATOM     17  N   LEU A   1      -9.319  24.769  21.625  0.00  0.00    -0.238 NA
ATOM     18  H   LEU A   1      -8.662  25.482  22.001  0.00  0.00    +0.142 HD
ENDBRANCH  16  17
BRANCH  16  19
ATOM     19  CB  LEU A   1     -11.171  26.280  22.304  0.00  0.00    +0.026 C 
BRANCH  19  20
ATOM     20  CG  LEU A   1     -11.747  25.973  23.669  0.00  0.00    +0.002 C 
ATOM     21  CD2 LEU A   1     -12.191  27.318  24.292  0.00  0.00    +0.000 C 
ATOM     22  CD1 LEU A   1     -12.943  24.955  23.567  0.00  0.00    +0.000 C 
ENDBRANCH  19  20
ENDBRANCH  16  19
ENDBRANCH  12  16
ENDBRANCH  11  14
BRANCH  11  23
ATOM     23  CB  ASN A   2     -10.427  23.498  17.037  0.00  0.00    +0.114 C 
BRANCH  23  24
ATOM     24  CG  ASN A   2      -9.919  23.672  15.640  0.00  0.00    +0.222 C 
ATOM     25  OD1 ASN A   2      -9.240  24.670  15.363  0.00  0.00    -0.275 OA
ATOM     26  ND2 ASN A   2     -10.264  22.729  14.733  0.00  0.00    -0.329 N 
ATOM     27 HD21 ASN A   2     -10.837  21.911  15.025  0.00  0.00    +0.145 HD
ATOM     28 HD22 ASN A   2      -9.956  22.822  13.744  0.00  0.00    +0.145 HD
ENDBRANCH  23  24
ENDBRANCH  11  23
ENDBRANCH   7  11
ENDBRANCH   6   9
BRANCH   6  29
ATOM     29  CB  LYS A   3     -14.215  25.449  14.635  0.00  0.00    +0.029 C 
BRANCH  29  30
ATOM     30  CG  LYS A   3     -13.708  23.974  14.262  0.00  0.00    +0.000 C 
BRANCH  30  31
ATOM     31  CD  LYS A   3     -14.788  23.101  13.575  0.00  0.00    -0.024 C 
BRANCH  31  32
ATOM     32  CE  LYS A   3     -14.172  21.655  13.185  0.00  0.00    -0.086 C 
BRANCH  32  33
ATOM     33  NZ  LYS A   3     -15.341  20.896  12.573  0.00  0.00    +0.380 N 
ATOM     34  HZ1 LYS A   3     -16.106  20.816  13.273  0.00  0.00    -0.089 HD
ATOM     35  HZ2 LYS A   3     -15.026  19.945  12.292  0.00  0.00    -0.089 HD
ATOM     36  HZ3 LYS A   3     -15.687  21.409  11.737  0.00  0.00    -0.089 HD
ENDBRANCH  32  33
ENDBRANCH  31  32
ENDBRANCH  30  31
ENDBRANCH  29  30
ENDBRANCH   6  29
ENDBRANCH   2   6
ENDBRANCH   1   3
BRANCH   1  37
ATOM     37  C   ILE A   4     -13.415  30.836  15.018  0.00  0.00    +0.241 C 
ATOM     38  O   ILE A   4     -14.097  31.824  15.207  0.00  0.00    -0.273 OA
ATOM     39  N   ASP A   5     -12.990  30.492  13.817  0.00  0.00    -0.297 N 
ATOM     40  H   ASP A   5     -12.358  29.673  13.714  0.00  0.00    +0.150 HD
BRANCH  39  41
ATOM     41  CA  ASP A   5     -13.391  31.239  12.636  0.00  0.00    +0.160 C 
BRANCH  41  42
ATOM     42  C   ASP A   5     -14.909  31.090  12.355  0.00  0.00    +0.241 C 
ATOM     43  N   ARG A   6     -15.578  30.115  12.993  0.00  0.00    -0.297 N 
ATOM     44  H   ARG A   6     -15.059  29.463  13.615  0.00  0.00    +0.150 HD
ATOM     45  O   ASP A   5     -15.478  31.862  11.564  0.00  0.00    -0.273 OA
BRANCH  43  46
ATOM     46  CA  ARG A   6     -17.037  29.953  12.827  0.00  0.00    +0.149 C 
BRANCH  46  47
ATOM     47  C   ARG A   6     -17.833  30.904  13.719  0.00  0.00    +0.241 C 
ATOM     48  N   LEU A   7     -17.158  31.655  14.581  0.00  0.00    -0.298 N 
ATOM     49  H   LEU A   7     -16.143  31.488  14.735  0.00  0.00    +0.150 HD
ATOM     50  O   ARG A   6     -19.045  30.937  13.643  0.00  0.00    -0.273 OA
BRANCH  48  51
ATOM     51  CA  LEU A   7     -17.852  32.728  15.320  0.00  0.00    +0.137 C 
BRANCH  51  52
ATOM     52  C   LEU A   7     -18.363  33.740  14.325  0.00  0.00    +0.227 C 
ATOM     53  O   LEU A   7     -17.607  34.214  13.423  0.00  0.00    -0.286 OA
ENDBRANCH  51  52
BRANCH  51  54
ATOM     54  CB  LEU A   7     -16.934  33.422  16.321  0.00  0.00    +0.028 C 
BRANCH  54  55
ATOM     55  CG  LEU A   7     -16.432  32.495  17.426  0.00  0.00    +0.002 C 
ATOM     56  CD2 LEU A   7     -17.541  32.175  18.360  0.00  0.00    +0.000 C 
ATOM     57  CD1 LEU A   7     -15.245  33.132  18.195  0.00  0.00    +0.000 C 
ENDBRANCH  54  55
ENDBRANCH  51  54
ENDBRANCH  48  51
ENDBRANCH  46  47
BRANCH  46  58
ATOM     58  CB  ARG A   6     -17.464  28.518  13.118  0.00  0.00    +0.033 C 
BRANCH  58  59
ATOM     59  CG  ARG A   6     -16.716  27.523  12.251  0.00  0.00    +0.045 C 
BRANCH  59  60
ATOM     60  CD  ARG A   6     -17.380  27.315  10.941  0.00  0.00    +0.174 C 
BRANCH  60  61
ATOM     61  NE  ARG A   6     -18.742  26.823  11.124  0.00  0.00    -0.265 N 
ATOM     62  HE  ARG A   6     -19.114  26.776  12.094  0.00  0.00    +0.259 HD
ATOM     63  CZ  ARG A   6     -19.538  26.432  10.138  0.00  0.00    +0.342 C 
ATOM     64  NH2 ARG A   6     -20.764  26.026  10.416  0.00  0.00    -0.292 N 
ATOM     65 HH21 ARG A   6     -21.097  26.015  11.401  0.00  0.00    +0.255 HD
ATOM     66 HH22 ARG A   6     -21.396  25.717   9.650  0.00  0.00    +0.255 HD
ATOM     67  NH1 ARG A   6     -19.100  26.421   8.883  0.00  0.00    -0.292 N 
ATOM     68 HH11 ARG A   6     -18.127  26.720   8.669  0.00  0.00    +0.255 HD
ATOM     69 HH12 ARG A   6     -19.730  26.113   8.115  0.00  0.00    +0.255 HD
ENDBRANCH  60  61
ENDBRANCH  59  60
ENDBRANCH  58  59
ENDBRANCH  46  58
ENDBRANCH  43  46
ENDBRANCH  41  42
BRANCH  41  70
ATOM     70  CB  ASP A   5     -12.565  30.751  11.439  0.00  0.00    +0.143 C 
BRANCH  70  71
ATOM     71  CG  ASP A   5     -12.813  29.268  11.159  0.00  0.00    +0.367 C 
ATOM     72  OD2 ASP A   5     -12.239  28.403  11.881  0.00  0.00    -0.246 OA
ATOM     73  OD1 ASP A   5     -13.698  28.981  10.299  0.00  0.00    -0.246 OA
ENDBRANCH  70  71
ENDBRANCH  41  70
ENDBRANCH  39  41
ENDBRANCH   1  37
BRANCH   1  74
ATOM     74  CB  ILE A   4     -12.006  30.694  17.020  0.00  0.00    +0.027 C 
ATOM     75  CG2 ILE A   4     -11.800  29.961  18.365  0.00  0.00    +0.002 C 
BRANCH  74  76
ATOM     76  CG1 ILE A   4     -10.732  30.894  16.206  0.00  0.00    +0.002 C 
ATOM     77  CD1 ILE A   4      -9.610  31.558  17.086  0.00  0.00    +0.000 C 
ENDBRANCH  74  76
ENDBRANCH   1  74
TORSDOF 33
REMARK  Name = ../refined-set-2016/4ncn/4ncn_pocket.pdb
REMARK  233 active torsions:
REMARK  status: ('A' for Active; 'I' for Inactive)
REMARK    1  A    between atoms: _1  and  _3
REMARK    2  A    between atoms: _3  and  _4
REMARK    3  A    between atoms: _3  and  _6
REMARK    4  A    between atoms: _6  and  _7
REMARK    5  A    between atoms: _10  and  _12
REMARK    6  A    between atoms: _12  and  _13
REMARK    7  A    between atoms: _12  and  _15
REMARK    8  A    between atoms: _15  and  _16
REMARK    9  A    between atoms: _19  and  _21
REMARK   10  A    between atoms: _21  and  _22
REMARK   11  A    between atoms: _24  and  _26
REMARK   12  A    between atoms: _26  and  _27
REMARK   13  A    between atoms: _26  and  _29
REMARK   14  A    between atoms: _29  and  _30
REMARK   15  A    between atoms: _35  and  _37
REMARK   16  A    between atoms: _37  and  _38
REMARK   17  A    between atoms: _37  and  _40
REMARK   18  A    between atoms: _43  and  _45
REMARK   19  A    between atoms: _45  and  _46
REMARK   20  A    between atoms: _45  and  _48
REMARK   21  A    between atoms: _48  and  _49
REMARK   22  A    between atoms: _52  and  _54
REMARK   23  A    between atoms: _54  and  _55
REMARK   24  A    between atoms: _54  and  _57
REMARK   25  A    between atoms: _57  and  _58
REMARK   26  A    between atoms: _61  and  _63
REMARK   27  A    between atoms: _63  and  _64
REMARK   28  A    between atoms: _66  and  _68
REMARK   29  A    between atoms: _68  and  _69
REMARK   30  A    between atoms: _68  and  _71
REMARK   31  A    between atoms: _71  and  _72
REMARK   32  A    between atoms: _72  and  _73
REMARK   33  A    between atoms: _73  and  _74
REMARK   34  A    between atoms: _74  and  _75
REMARK   35  A    between atoms: _79  and  _81
REMARK   36  A    between atoms: _81  and  _82
REMARK   37  A    between atoms: _81  and  _84
REMARK   38  A    between atoms: _84  and  _85
REMARK   39  A    between atoms: _88  and  _90
REMARK   40  A    between atoms: _90  and  _91
REMARK   41  A    between atoms: _90  and  _93
REMARK   42  A    between atoms: _93  and  _94
REMARK   43  A    between atoms: _94  and  _95
REMARK   44  A    between atoms: _95  and  _96
REMARK   45  A    between atoms: _96  and  _97
REMARK   46  A    between atoms: _101  and  _103
REMARK   47  A    between atoms: _103  and  _104
REMARK   48  A    between atoms: _103  and  _106
REMARK   49  A    between atoms: _106  and  _107
REMARK   50  A    between atoms: _110  and  _112
REMARK   51  A    between atoms: _112  and  _113
REMARK   52  A    between atoms: _112  and  _115
REMARK   53  A    between atoms: _115  and  _116
REMARK   54  A    between atoms: _119  and  _121
REMARK   55  A    between atoms: _121  and  _122
REMARK   56  A    between atoms: _121  and  _124
REMARK   57  A    between atoms: _124  and  _125
REMARK   58  A    between atoms: _128  and  _130
REMARK   59  A    between atoms: _130  and  _131
REMARK   60  A    between atoms: _130  and  _133
REMARK   61  A    between atoms: _133  and  _134
REMARK   62  A    between atoms: _134  and  _135
REMARK   63  A    between atoms: _135  and  _136
REMARK   64  A    between atoms: _136  and  _137
REMARK   65  A    between atoms: _141  and  _143
REMARK   66  A    between atoms: _143  and  _144
REMARK   67  A    between atoms: _143  and  _146
REMARK   68  A    between atoms: _146  and  _147
REMARK   69  A    between atoms: _147  and  _148
REMARK   70  A    between atoms: _148  and  _149
REMARK   71  A    between atoms: _158  and  _160
REMARK   72  A    between atoms: _160  and  _161
REMARK   73  A    between atoms: _160  and  _163
REMARK   74  A    between atoms: _166  and  _168
REMARK   75  A    between atoms: _168  and  _169
REMARK   76  A    between atoms: _168  and  _171
REMARK   77  A    between atoms: _171  and  _172
REMARK   78  A    between atoms: _172  and  _173
REMARK   79  A    between atoms: _178  and  _180
REMARK   80  A    between atoms: _180  and  _181
REMARK   81  A    between atoms: _180  and  _183
REMARK   82  A    between atoms: _183  and  _184
REMARK   83  A    between atoms: _184  and  _185
REMARK   84  A    between atoms: _188  and  _190
REMARK   85  A    between atoms: _190  and  _191
REMARK   86  A    between atoms: _190  and  _193
REMARK   87  A    between atoms: _193  and  _194
REMARK   88  A    between atoms: _194  and  _195
REMARK   89  A    between atoms: _198  and  _200
REMARK   90  A    between atoms: _200  and  _201
REMARK   91  A    between atoms: _204  and  _206
REMARK   92  A    between atoms: _206  and  _207
REMARK   93  A    between atoms: _209  and  _211
REMARK   94  A    between atoms: _211  and  _212
REMARK   95  A    between atoms: _212  and  _213
REMARK   96  A    between atoms: _212  and  _214
REMARK   97  A    between atoms: _214  and  _216
REMARK   98  A    between atoms: _216  and  _217
REMARK   99  A    between atoms: _216  and  _219
REMARK  100  A    between atoms: _219  and  _220
REMARK  101  A    between atoms: _223  and  _225
REMARK  102  A    between atoms: _225  and  _226
REMARK  103  A    between atoms: _225  and  _228
REMARK  104  A    between atoms: _228  and  _229
REMARK  105  A    between atoms: _232  and  _234
REMARK  106  A    between atoms: _234  and  _235
REMARK  107  A    between atoms: _234  and  _237
REMARK  108  A    between atoms: _237  and  _238
REMARK  109  A    between atoms: _238  and  _239
REMARK  110  A    between atoms: _244  and  _246
REMARK  111  A    between atoms: _246  and  _247
REMARK  112  A    between atoms: _246  and  _249
REMARK  113  A    between atoms: _249  and  _250
REMARK  114  A    between atoms: _250  and  _251
REMARK  115  A    between atoms: _256  and  _258
REMARK  116  A    between atoms: _258  and  _259
REMARK  117  A    between atoms: _258  and  _261
REMARK  118  A    between atoms: _261  and  _262
REMARK  119  A    between atoms: _265  and  _267
REMARK  120  A    between atoms: _267  and  _268
REMARK  121  A    between atoms: _267  and  _270
REMARK  122  A    between atoms: _270  and  _271
REMARK  123  A    between atoms: _275  and  _276
REMARK  124  A    between atoms: _281  and  _283
REMARK  125  A    between atoms: _283  and  _284
REMARK  126  A    between atoms: _286  and  _288
REMARK  127  A    between atoms: _288  and  _289
REMARK  128  A    between atoms: _288  and  _291
REMARK  129  A    between atoms: _291  and  _292
REMARK  130  A    between atoms: _297  and  _299
REMARK  131  A    between atoms: _299  and  _300
REMARK  132  A    between atoms: _299  and  _302
REMARK  133  A    between atoms: _302  and  _303
REMARK  134  A    between atoms: _303  and  _304
REMARK  135  A    between atoms: _307  and  _309
REMARK  136  A    between atoms: _309  and  _310
REMARK  137  A    between atoms: _309  and  _312
REMARK  138  A    between atoms: _312  and  _313
REMARK  139  A    between atoms: _319  and  _321
REMARK  140  A    between atoms: _321  and  _322
REMARK  141  A    between atoms: _321  and  _324
REMARK  142  A    between atoms: _324  and  _325
REMARK  143  A    between atoms: _325  and  _326
REMARK  144  A    between atoms: _326  and  _327
REMARK  145  A    between atoms: _336  and  _338
REMARK  146  A    between atoms: _338  and  _339
REMARK  147  A    between atoms: _338  and  _341
REMARK  148  A    between atoms: _344  and  _346
REMARK  149  A    between atoms: _346  and  _347
REMARK  150  A    between atoms: _346  and  _349
REMARK  151  A    between atoms: _349  and  _350
REMARK  152  A    between atoms: _353  and  _355
REMARK  153  A    between atoms: _355  and  _356
REMARK  154  A    between atoms: _355  and  _358
REMARK  155  A    between atoms: _358  and  _359
REMARK  156  A    between atoms: _362  and  _364
REMARK  157  A    between atoms: _364  and  _365
REMARK  158  A    between atoms: _364  and  _367
REMARK  159  A    between atoms: _367  and  _368
REMARK  160  A    between atoms: _368  and  _369
REMARK  161  A    between atoms: _371  and  _373
REMARK  162  A    between atoms: _373  and  _374
REMARK  163  A    between atoms: _373  and  _376
REMARK  164  A    between atoms: _376  and  _377
REMARK  165  A    between atoms: _377  and  _378
REMARK  166  A    between atoms: _383  and  _385
REMARK  167  A    between atoms: _385  and  _386
REMARK  168  A    between atoms: _385  and  _388
REMARK  169  A    between atoms: _388  and  _389
REMARK  170  A    between atoms: _392  and  _394
REMARK  171  A    between atoms: _394  and  _395
REMARK  172  A    between atoms: _394  and  _397
REMARK  173  A    between atoms: _397  and  _398
REMARK  174  A    between atoms: _403  and  _405
REMARK  175  A    between atoms: _405  and  _406
REMARK  176  A    between atoms: _405  and  _408
REMARK  177  A    between atoms: _408  and  _409
REMARK  178  A    between atoms: _409  and  _410
REMARK  179  A    between atoms: _410  and  _411
REMARK  180  A    between atoms: _411  and  _412
REMARK  181  A    between atoms: _416  and  _418
REMARK  182  A    between atoms: _418  and  _419
REMARK  183  A    between atoms: _418  and  _421
REMARK  184  A    between atoms: _421  and  _422
REMARK  185  A    between atoms: _425  and  _427
REMARK  186  A    between atoms: _427  and  _428
REMARK  187  A    between atoms: _427  and  _430
REMARK  188  A    between atoms: _430  and  _431
REMARK  189  A    between atoms: _434  and  _436
REMARK  190  A    between atoms: _436  and  _437
REMARK  191  A    between atoms: _436  and  _439
REMARK  192  A    between atoms: _439  and  _440
REMARK  193  A    between atoms: _440  and  _441
REMARK  194  A    between atoms: _441  and  _442
REMARK  195  A    between atoms: _451  and  _453
REMARK  196  A    between atoms: _453  and  _454
REMARK  197  A    between atoms: _453  and  _456
REMARK  198  A    between atoms: _456  and  _457
REMARK  199  A    between atoms: _460  and  _462
REMARK  200  A    between atoms: _462  and  _463
REMARK  201  A    between atoms: _462  and  _465
REMARK  202  A    between atoms: _465  and  _466
REMARK  203  A    between atoms: _469  and  _471
REMARK  204  A    between atoms: _471  and  _472
REMARK  205  A    between atoms: _471  and  _474
REMARK  206  A    between atoms: _474  and  _475
REMARK  207  A    between atoms: _477  and  _479
REMARK  208  A    between atoms: _479  and  _480
REMARK  209  A    between atoms: _483  and  _485
REMARK  210  A    between atoms: _485  and  _486
REMARK  211  A    between atoms: _485  and  _488
REMARK  212  A    between atoms: _488  and  _489
REMARK  213  A    between atoms: _494  and  _496
REMARK  214  A    between atoms: _496  and  _497
REMARK  215  A    between atoms: _496  and  _499
REMARK  216  A    between atoms: _499  and  _500
REMARK  217  A    between atoms: _503  and  _505
REMARK  218  A    between atoms: _505  and  _506
REMARK  219  A    between atoms: _508  and  _510
REMARK  220  A    between atoms: _510  and  _511
REMARK  221  A    between atoms: _510  and  _513
REMARK  222  A    between atoms: _513  and  _514
REMARK  223  A    between atoms: _514  and  _515
REMARK  224  A    between atoms: _518  and  _520
REMARK  225  A    between atoms: _520  and  _521
REMARK  226  A    between atoms: _520  and  _523
REMARK  227  A    between atoms: _523  and  _524
REMARK  228  A    between atoms: _527  and  _529
REMARK  229  A    between atoms: _529  and  _530
REMARK  230  A    between atoms: _529  and  _532
REMARK  231  A    between atoms: _532  and  _533
REMARK  232  A    between atoms: _533  and  _534
REMARK  233  A    between atoms: _534  and  _535
REMARK                            x       y       z     vdW  Elec       q    Type
REMARK                         _______ _______ _______ _____ _____    ______ ____
ROOT
ATOM      1  CA  HIS A   4      -8.426  27.027   8.742  0.00  0.00    +0.155 C 
ENDROOT
BRANCH   1   3
ATOM      2  C   ALA A   3      -7.184  25.733  10.347  0.00  0.00    +0.241 C 
ATOM      3  N   HIS A   4      -8.290  26.413  10.083  0.00  0.00    -0.297 N 
ATOM      4  H   HIS A   4      -9.040  26.513  10.796  0.00  0.00    +0.150 HD
ATOM      5  O   ALA A   3      -6.294  25.616   9.490  0.00  0.00    -0.273 OA
BRANCH   2   6
ATOM      6  CA  ALA A   3      -7.053  25.116  11.733  0.00  0.00    +0.149 C 
ATOM      7  CB  ALA A   3      -7.461  23.553  11.670  0.00  0.00    +0.031 C 
BRANCH   6   9
ATOM      8  C   SER A   2      -7.566  27.076  13.087  0.00  0.00    +0.243 C 
ATOM      9  N   ALA A   3      -7.896  25.832  12.732  0.00  0.00    -0.297 N 
ATOM     10  H   ALA A   3      -8.730  25.369  13.147  0.00  0.00    +0.150 HD
ATOM     11  O   SER A   2      -6.512  27.627  12.695  0.00  0.00    -0.273 OA
BRANCH   8  12
ATOM     12  CA  SER A   2      -8.526  27.815  13.954  0.00  0.00    +0.178 C 
BRANCH  12  15
ATOM     13  C   THR A   1      -8.472  27.919  16.348  0.00  0.00    +0.241 C 
ATOM     14  O   THR A   1      -9.681  27.687  16.461  0.00  0.00    -0.274 OA
ATOM     15  N   SER A   2      -7.861  28.147  15.188  0.00  0.00    -0.295 N 
ATOM     16  H   SER A   2      -6.908  28.563  15.172  0.00  0.00    +0.150 HD
BRANCH  13  17
ATOM     17  CA  THR A   1      -7.577  27.921  17.550  0.00  0.00    +0.172 C 
BRANCH  17  18
ATOM     18  N   THR A   1      -8.303  28.108  18.795  0.00  0.00    -0.236 NA
ATOM     19  H   THR A   1      -9.195  27.592  18.938  0.00  0.00    +0.142 HD
ENDBRANCH  17  18
BRANCH  17  20
ATOM     20  CB  THR A   1      -6.813  26.581  17.519  0.00  0.00    +0.135 C 
ATOM     21  CG2 THR A   1      -5.809  26.510  18.660  0.00  0.00    +0.034 C 
BRANCH  20  22
ATOM     22  OG1 THR A   1      -7.728  25.464  17.629  0.00  0.00    -0.383 OA
ATOM     23  HG1 THR A   1      -8.366  25.486  16.872  0.00  0.00    +0.210 HD
ENDBRANCH  20  22
ENDBRANCH  17  20
ENDBRANCH  13  17
ENDBRANCH  12  15
BRANCH  12  24
ATOM     24  CB  SER A   2      -9.011  29.065  13.219  0.00  0.00    +0.166 C 
BRANCH  24  25
ATOM     25  OG  SER A   2      -9.515  28.680  11.955  0.00  0.00    -0.380 OA
ATOM     26  H   SER A   2     -10.268  28.049  12.079  0.00  0.00    +0.211 HD
ENDBRANCH  24  25
ENDBRANCH  12  24
ENDBRANCH   8  12
ENDBRANCH   6   9
ENDBRANCH   2   6
ENDBRANCH   1   3
BRANCH   1  27
ATOM     27  C   HIS A   4      -7.619  28.324   8.605  0.00  0.00    +0.241 C 
ATOM     28  N   THR A   5      -7.691  29.197   9.604  0.00  0.00    -0.295 N 
ATOM     29  H   THR A   5      -8.272  29.000  10.444  0.00  0.00    +0.150 HD
ATOM     30  O   HIS A   4      -6.942  28.548   7.584  0.00  0.00    -0.273 OA
BRANCH  28  31
ATOM     31  CA  THR A   5      -6.908  30.480   9.488  0.00  0.00    +0.176 C 
BRANCH  31  32
ATOM     32  C   THR A   5      -5.526  30.390  10.111  0.00  0.00    +0.243 C 
ATOM     33  N   GLY A   6      -5.320  29.384  10.969  0.00  0.00    -0.295 N 
ATOM     34  H   GLY A   6      -6.095  28.721  11.173  0.00  0.00    +0.150 HD
ATOM     35  O   THR A   5      -4.629  31.236   9.786  0.00  0.00    -0.273 OA
BRANCH  33  36
ATOM     36  CA  GLY A   6      -4.011  29.195  11.634  0.00  0.00    +0.176 C 
BRANCH  36  37
ATOM     37  C   GLY A   6      -3.959  30.000  12.956  0.00  0.00    +0.243 C 
ATOM     38  O   GLY A   6      -3.003  29.890  13.748  0.00  0.00    -0.273 OA
ATOM     39  N   GLU A   7      -4.970  30.811  13.224  0.00  0.00    -0.298 N 
ATOM     40  H   GLU A   7      -5.803  30.837  12.602  0.00  0.00    +0.150 HD
BRANCH  39  41
ATOM     41  CA  GLU A   7      -4.899  31.682  14.422  0.00  0.00    +0.137 C 
BRANCH  41  42
ATOM     42  C   GLU A   7      -4.914  30.799  15.680  0.00  0.00    +0.227 C 
ATOM     43  O   GLU A   7      -5.656  29.788  15.729  0.00  0.00    -0.286 OA
ENDBRANCH  41  42
BRANCH  41  44
ATOM     44  CB  GLU A   7      -6.060  32.709  14.468  0.00  0.00    +0.039 C 
BRANCH  44  45
ATOM     45  CG  GLU A   7      -5.863  33.740  13.358  0.00  0.00    +0.116 C 
BRANCH  45  46
ATOM     46  CD  GLU A   7      -7.140  34.457  12.980  0.00  0.00    +0.365 C 
ATOM     47  OE2 GLU A   7      -7.190  35.682  13.183  0.00  0.00    -0.246 OA
ATOM     48  OE1 GLU A   7      -8.083  33.787  12.509  0.00  0.00    -0.246 OA
ENDBRANCH  45  46
ENDBRANCH  44  45
ENDBRANCH  41  44
ENDBRANCH  39  41
ENDBRANCH  36  37
ENDBRANCH  33  36
ENDBRANCH  31  32
BRANCH  31  49
ATOM     49  CB  THR A   5      -7.597  31.685  10.187  0.00  0.00    +0.137 C 
ATOM     50  CG2 THR A   5      -9.064  31.787   9.732  0.00  0.00    +0.034 C 
BRANCH  49  51
ATOM     51  OG1 THR A   5      -7.559  31.466  11.631  0.00  0.00    -0.382 OA
ATOM     52  HG1 THR A   5      -7.995  32.227  12.091  0.00  0.00    +0.210 HD
ENDBRANCH  49  51
ENDBRANCH  31  49
ENDBRANCH  28  31
ENDBRANCH   1  27
BRANCH   1  53
ATOM     53  CB  HIS A   4      -9.929  27.304   8.437  0.00  0.00    +0.076 C 
BRANCH  53  54
ATOM     54  CG  HIS A   4     -10.659  26.056   7.985  0.00  0.00    +0.082 A 
ATOM     55  CD2 HIS A   4     -10.262  24.758   7.977  0.00  0.00    +0.115 A 
ATOM     56  NE2 HIS A   4     -11.305  24.011   7.455  0.00  0.00    -0.221 NA
ATOM     57  CE1 HIS A   4     -12.290  24.833   7.117  0.00  0.00    +0.199 A 
ATOM     58  ND1 HIS A   4     -11.921  26.072   7.418  0.00  0.00    -0.227 NA
ENDBRANCH  53  54
ENDBRANCH   1  53
TORSDOF 25
REMARK  Name = ../refined-set-2016/4ncn/4ncn_pocket.pdb
REMARK  233 active torsions:
REMARK  status: ('A' for Active; 'I' for Inactive)
REMARK    1  A    between atoms: _1  and  _3
REMARK    2  A    between atoms: _3  and  _4
REMARK    3  A    between atoms: _3  and  _6
REMARK    4  A    between atoms: _6  and  _7
REMARK    5  A    between atoms: _10  and  _12
REMARK    6  A    between atoms: _12  and  _13
REMARK    7  A    between atoms: _12  and  _15
REMARK    8  A    between atoms: _15  and  _16
REMARK    9  A    between atoms: _19  and  _21
REMARK   10  A    between atoms: _21  and  _22
REMARK   11  A    between atoms: _24  and  _26
REMARK   12  A    between atoms: _26  and  _27
REMARK   13  A    between atoms: _26  and  _29
REMARK   14  A    between atoms: _29  and  _30
REMARK   15  A    between atoms: _35  and  _37
REMARK   16  A    between atoms: _37  and  _38
REMARK   17  A    between atoms: _37  and  _40
REMARK   18  A    between atoms: _43  and  _45
REMARK   19  A    between atoms: _45  and  _46
REMARK   20  A    between atoms: _45  and  _48
REMARK   21  A    between atoms: _48  and  _49
REMARK   22  A    between atoms: _52  and  _54
REMARK   23  A    between atoms: _54  and  _55
REMARK   24  A    between atoms: _54  and  _57
REMARK   25  A    between atoms: _57  and  _58
REMARK   26  A    between atoms: _61  and  _63
REMARK   27  A    between atoms: _63  and  _64
REMARK   28  A    between atoms: _66  and  _68
REMARK   29  A    between atoms: _68  and  _69
REMARK   30  A    between atoms: _68  and  _71
REMARK   31  A    between atoms: _71  and  _72
REMARK   32  A    between atoms: _72  and  _73
REMARK   33  A    between atoms: _73  and  _74
REMARK   34  A    between atoms: _74  and  _75
REMARK   35  A    between atoms: _79  and  _81
REMARK   36  A    between atoms: _81  and  _82
REMARK   37  A    between atoms: _81  and  _84
REMARK   38  A    between atoms: _84  and  _85
REMARK   39  A    between atoms: _88  and  _90
REMARK   40  A    between atoms: _90  and  _91
REMARK   41  A    between atoms: _90  and  _93
REMARK   42  A    between atoms: _93  and  _94
REMARK   43  A    between atoms: _94  and  _95
REMARK   44  A    between atoms: _95  and  _96
REMARK   45  A    between atoms: _96  and  _97
REMARK   46  A    between atoms: _101  and  _103
REMARK   47  A    between atoms: _103  and  _104
REMARK   48  A    between atoms: _103  and  _106
REMARK   49  A    between atoms: _106  and  _107
REMARK   50  A    between atoms: _110  and  _112
REMARK   51  A    between atoms: _112  and  _113
REMARK   52  A    between atoms: _112  and  _115
REMARK   53  A    between atoms: _115  and  _116
REMARK   54  A    between atoms: _119  and  _121
REMARK   55  A    between atoms: _121  and  _122
REMARK   56  A    between atoms: _121  and  _124
REMARK   57  A    between atoms: _124  and  _125
REMARK   58  A    between atoms: _128  and  _130
REMARK   59  A    between atoms: _130  and  _131
REMARK   60  A    between atoms: _130  and  _133
REMARK   61  A    between atoms: _133  and  _134
REMARK   62  A    between atoms: _134  and  _135
REMARK   63  A    between atoms: _135  and  _136
REMARK   64  A    between atoms: _136  and  _137
REMARK   65  A    between atoms: _141  and  _143
REMARK   66  A    between atoms: _143  and  _144
REMARK   67  A    between atoms: _143  and  _146
REMARK   68  A    between atoms: _146  and  _147
REMARK   69  A    between atoms: _147  and  _148
REMARK   70  A    between atoms: _148  and  _149
REMARK   71  A    between atoms: _158  and  _160
REMARK   72  A    between atoms: _160  and  _161
REMARK   73  A    between atoms: _160  and  _163
REMARK   74  A    between atoms: _166  and  _168
REMARK   75  A    between atoms: _168  and  _169
REMARK   76  A    between atoms: _168  and  _171
REMARK   77  A    between atoms: _171  and  _172
REMARK   78  A    between atoms: _172  and  _173
REMARK   79  A    between atoms: _178  and  _180
REMARK   80  A    between atoms: _180  and  _181
REMARK   81  A    between atoms: _180  and  _183
REMARK   82  A    between atoms: _183  and  _184
REMARK   83  A    between atoms: _184  and  _185
REMARK   84  A    between atoms: _188  and  _190
REMARK   85  A    between atoms: _190  and  _191
REMARK   86  A    between atoms: _190  and  _193
REMARK   87  A    between atoms: _193  and  _194
REMARK   88  A    between atoms: _194  and  _195
REMARK   89  A    between atoms: _198  and  _200
REMARK   90  A    between atoms: _200  and  _201
REMARK   91  A    between atoms: _204  and  _206
REMARK   92  A    between atoms: _206  and  _207
REMARK   93  A    between atoms: _209  and  _211
REMARK   94  A    between atoms: _211  and  _212
REMARK   95  A    between atoms: _212  and  _213
REMARK   96  A    between atoms: _212  and  _214
REMARK   97  A    between atoms: _214  and  _216
REMARK   98  A    between atoms: _216  and  _217
REMARK   99  A    between atoms: _216  and  _219
REMARK  100  A    between atoms: _219  and  _220
REMARK  101  A    between atoms: _223  and  _225
REMARK  102  A    between atoms: _225  and  _226
REMARK  103  A    between atoms: _225  and  _228
REMARK  104  A    between atoms: _228  and  _229
REMARK  105  A    between atoms: _232  and  _234
REMARK  106  A    between atoms: _234  and  _235
REMARK  107  A    between atoms: _234  and  _237
REMARK  108  A    between atoms: _237  and  _238
REMARK  109  A    between atoms: _238  and  _239
REMARK  110  A    between atoms: _244  and  _246
REMARK  111  A    between atoms: _246  and  _247
REMARK  112  A    between atoms: _246  and  _249
REMARK  113  A    between atoms: _249  and  _250
REMARK  114  A    between atoms: _250  and  _251
REMARK  115  A    between atoms: _256  and  _258
REMARK  116  A    between atoms: _258  and  _259
REMARK  117  A    between atoms: _258  and  _261
REMARK  118  A    between atoms: _261  and  _262
REMARK  119  A    between atoms: _265  and  _267
REMARK  120  A    between atoms: _267  and  _268
REMARK  121  A    between atoms: _267  and  _270
REMARK  122  A    between atoms: _270  and  _271
REMARK  123  A    between atoms: _275  and  _276
REMARK  124  A    between atoms: _281  and  _283
REMARK  125  A    between atoms: _283  and  _284
REMARK  126  A    between atoms: _286  and  _288
REMARK  127  A    between atoms: _288  and  _289
REMARK  128  A    between atoms: _288  and  _291
REMARK  129  A    between atoms: _291  and  _292
REMARK  130  A    between atoms: _297  and  _299
REMARK  131  A    between atoms: _299  and  _300
REMARK  132  A    between atoms: _299  and  _302
REMARK  133  A    between atoms: _302  and  _303
REMARK  134  A    between atoms: _303  and  _304
REMARK  135  A    between atoms: _307  and  _309
REMARK  136  A    between atoms: _309  and  _310
REMARK  137  A    between atoms: _309  and  _312
REMARK  138  A    between atoms: _312  and  _313
REMARK  139  A    between atoms: _319  and  _321
REMARK  140  A    between atoms: _321  and  _322
REMARK  141  A    between atoms: _321  and  _324
REMARK  142  A    between atoms: _324  and  _325
REMARK  143  A    between atoms: _325  and  _326
REMARK  144  A    between atoms: _326  and  _327
REMARK  145  A    between atoms: _336  and  _338
REMARK  146  A    between atoms: _338  and  _339
REMARK  147  A    between atoms: _338  and  _341
REMARK  148  A    between atoms: _344  and  _346
REMARK  149  A    between atoms: _346  and  _347
REMARK  150  A    between atoms: _346  and  _349
REMARK  151  A    between atoms: _349  and  _350
REMARK  152  A    between atoms: _353  and  _355
REMARK  153  A    between atoms: _355  and  _356
REMARK  154  A    between atoms: _355  and  _358
REMARK  155  A    between atoms: _358  and  _359
REMARK  156  A    between atoms: _362  and  _364
REMARK  157  A    between atoms: _364  and  _365
REMARK  158  A    between atoms: _364  and  _367
REMARK  159  A    between atoms: _367  and  _368
REMARK  160  A    between atoms: _368  and  _369
REMARK  161  A    between atoms: _371  and  _373
REMARK  162  A    between atoms: _373  and  _374
REMARK  163  A    between atoms: _373  and  _376
REMARK  164  A    between atoms: _376  and  _377
REMARK  165  A    between atoms: _377  and  _378
REMARK  166  A    between atoms: _383  and  _385
REMARK  167  A    between atoms: _385  and  _386
REMARK  168  A    between atoms: _385  and  _388
REMARK  169  A    between atoms: _388  and  _389
REMARK  170  A    between atoms: _392  and  _394
REMARK  171  A    between atoms: _394  and  _395
REMARK  172  A    between atoms: _394  and  _397
REMARK  173  A    between atoms: _397  and  _398
REMARK  174  A    between atoms: _403  and  _405
REMARK  175  A    between atoms: _405  and  _406
REMARK  176  A    between atoms: _405  and  _408
REMARK  177  A    between atoms: _408  and  _409
REMARK  178  A    between atoms: _409  and  _410
REMARK  179  A    between atoms: _410  and  _411
REMARK  180  A    between atoms: _411  and  _412
REMARK  181  A    between atoms: _416  and  _418
REMARK  182  A    between atoms: _418  and  _419
REMARK  183  A    between atoms: _418  and  _421
REMARK  184  A    between atoms: _421  and  _422
REMARK  185  A    between atoms: _425  and  _427
REMARK  186  A    between atoms: _427  and  _428
REMARK  187  A    between atoms: _427  and  _430
REMARK  188  A    between atoms: _430  and  _431
REMARK  189  A    between atoms: _434  and  _436
REMARK  190  A    between atoms: _436  and  _437
REMARK  191  A    between atoms: _436  and  _439
REMARK  192  A    between atoms: _439  and  _440
REMARK  193  A    between atoms: _440  and  _441
REMARK  194  A    between atoms: _441  and  _442
REMARK  195  A    between atoms: _451  and  _453
REMARK  196  A    between atoms: _453  and  _454
REMARK  197  A    between atoms: _453  and  _456
REMARK  198  A    between atoms: _456  and  _457
REMARK  199  A    between atoms: _460  and  _462
REMARK  200  A    between atoms: _462  and  _463
REMARK  201  A    between atoms: _462  and  _465
REMARK  202  A    between atoms: _465  and  _466
REMARK  203  A    between atoms: _469  and  _471
REMARK  204  A    between atoms: _471  and  _472
REMARK  205  A    between atoms: _471  and  _474
REMARK  206  A    between atoms: _474  and  _475
REMARK  207  A    between atoms: _477  and  _479
REMARK  208  A    between atoms: _479  and  _480
REMARK  209  A    between atoms: _483  and  _485
REMARK  210  A    between atoms: _485  and  _486
REMARK  211  A    between atoms: _485  and  _488
REMARK  212  A    between atoms: _488  and  _489
REMARK  213  A    between atoms: _494  and  _496
REMARK  214  A    between atoms: _496  and  _497
REMARK  215  A    between atoms: _496  and  _499
REMARK  216  A    between atoms: _499  and  _500
REMARK  217  A    between atoms: _503  and  _505
REMARK  218  A    between atoms: _505  and  _506
REMARK  219  A    between atoms: _508  and  _510
REMARK  220  A    between atoms: _510  and  _511
REMARK  221  A    between atoms: _510  and  _513
REMARK  222  A    between atoms: _513  and  _514
REMARK  223  A    between atoms: _514  and  _515
REMARK  224  A    between atoms: _518  and  _520
REMARK  225  A    between atoms: _520  and  _521
REMARK  226  A    between atoms: _520  and  _523
REMARK  227  A    between atoms: _523  and  _524
REMARK  228  A    between atoms: _527  and  _529
REMARK  229  A    between atoms: _529  and  _530
REMARK  230  A    between atoms: _529  and  _532
REMARK  231  A    between atoms: _532  and  _533
REMARK  232  A    between atoms: _533  and  _534
REMARK  233  A    between atoms: _534  and  _535
REMARK                            x       y       z     vdW  Elec       q    Type
REMARK                         _______ _______ _______ _____ _____    ______ ____
ROOT
ATOM      1  CA  ILE A   1      -1.840  27.645  16.579  0.00  0.00    +0.133 C 
ENDROOT
BRANCH   1   2
ATOM      2  N   ILE A   1      -2.744  28.784  16.660  0.00  0.00    -0.239 NA
ATOM      3  H   ILE A   1      -3.123  29.224  15.797  0.00  0.00    +0.142 HD
ENDBRANCH   1   2
BRANCH   1   4
ATOM      4  C   ILE A   1      -0.446  27.989  17.129  0.00  0.00    +0.224 C 
ATOM      5  O   ILE A   1       0.185  27.129  17.805  0.00  0.00    -0.287 OA
ENDBRANCH   1   4
BRANCH   1   6
ATOM      6  CB  ILE A   1      -1.730  27.124  15.129  0.00  0.00    +0.023 C 
ATOM      7  CG2 ILE A   1      -0.569  26.104  15.007  0.00  0.00    +0.002 C 
BRANCH   6   8
ATOM      8  CG1 ILE A   1      -3.079  26.494  14.736  0.00  0.00    +0.002 C 
ATOM      9  CD1 ILE A   1      -3.040  25.842  13.372  0.00  0.00    +0.000 C 
ENDBRANCH   6   8
ENDBRANCH   1   6
TORSDOF 4
REMARK  Name = ../refined-set-2016/4ncn/4ncn_pocket.pdb
REMARK  233 active torsions:
REMARK  status: ('A' for Active; 'I' for Inactive)
REMARK    1  A    between atoms: _1  and  _3
REMARK    2  A    between atoms: _3  and  _4
REMARK    3  A    between atoms: _3  and  _6
REMARK    4  A    between atoms: _6  and  _7
REMARK    5  A    between atoms: _10  and  _12
REMARK    6  A    between atoms: _12  and  _13
REMARK    7  A    between atoms: _12  and  _15
REMARK    8  A    between atoms: _15  and  _16
REMARK    9  A    between atoms: _19  and  _21
REMARK   10  A    between atoms: _21  and  _22
REMARK   11  A    between atoms: _24  and  _26
REMARK   12  A    between atoms: _26  and  _27
REMARK   13  A    between atoms: _26  and  _29
REMARK   14  A    between atoms: _29  and  _30
REMARK   15  A    between atoms: _35  and  _37
REMARK   16  A    between atoms: _37  and  _38
REMARK   17  A    between atoms: _37  and  _40
REMARK   18  A    between atoms: _43  and  _45
REMARK   19  A    between atoms: _45  and  _46
REMARK   20  A    between atoms: _45  and  _48
REMARK   21  A    between atoms: _48  and  _49
REMARK   22  A    between atoms: _52  and  _54
REMARK   23  A    between atoms: _54  and  _55
REMARK   24  A    between atoms: _54  and  _57
REMARK   25  A    between atoms: _57  and  _58
REMARK   26  A    between atoms: _61  and  _63
REMARK   27  A    between atoms: _63  and  _64
REMARK   28  A    between atoms: _66  and  _68
REMARK   29  A    between atoms: _68  and  _69
REMARK   30  A    between atoms: _68  and  _71
REMARK   31  A    between atoms: _71  and  _72
REMARK   32  A    between atoms: _72  and  _73
REMARK   33  A    between atoms: _73  and  _74
REMARK   34  A    between atoms: _74  and  _75
REMARK   35  A    between atoms: _79  and  _81
REMARK   36  A    between atoms: _81  and  _82
REMARK   37  A    between atoms: _81  and  _84
REMARK   38  A    between atoms: _84  and  _85
REMARK   39  A    between atoms: _88  and  _90
REMARK   40  A    between atoms: _90  and  _91
REMARK   41  A    between atoms: _90  and  _93
REMARK   42  A    between atoms: _93  and  _94
REMARK   43  A    between atoms: _94  and  _95
REMARK   44  A    between atoms: _95  and  _96
REMARK   45  A    between atoms: _96  and  _97
REMARK   46  A    between atoms: _101  and  _103
REMARK   47  A    between atoms: _103  and  _104
REMARK   48  A    between atoms: _103  and  _106
REMARK   49  A    between atoms: _106  and  _107
REMARK   50  A    between atoms: _110  and  _112
REMARK   51  A    between atoms: _112  and  _113
REMARK   52  A    between atoms: _112  and  _115
REMARK   53  A    between atoms: _115  and  _116
REMARK   54  A    between atoms: _119  and  _121
REMARK   55  A    between atoms: _121  and  _122
REMARK   56  A    between atoms: _121  and  _124
REMARK   57  A    between atoms: _124  and  _125
REMARK   58  A    between atoms: _128  and  _130
REMARK   59  A    between atoms: _130  and  _131
REMARK   60  A    between atoms: _130  and  _133
REMARK   61  A    between atoms: _133  and  _134
REMARK   62  A    between atoms: _134  and  _135
REMARK   63  A    between atoms: _135  and  _136
REMARK   64  A    between atoms: _136  and  _137
REMARK   65  A    between atoms: _141  and  _143
REMARK   66  A    between atoms: _143  and  _144
REMARK   67  A    between atoms: _143  and  _146
REMARK   68  A    between atoms: _146  and  _147
REMARK   69  A    between atoms: _147  and  _148
REMARK   70  A    between atoms: _148  and  _149
REMARK   71  A    between atoms: _158  and  _160
REMARK   72  A    between atoms: _160  and  _161
REMARK   73  A    between atoms: _160  and  _163
REMARK   74  A    between atoms: _166  and  _168
REMARK   75  A    between atoms: _168  and  _169
REMARK   76  A    between atoms: _168  and  _171
REMARK   77  A    between atoms: _171  and  _172
REMARK   78  A    between atoms: _172  and  _173
REMARK   79  A    between atoms: _178  and  _180
REMARK   80  A    between atoms: _180  and  _181
REMARK   81  A    between atoms: _180  and  _183
REMARK   82  A    between atoms: _183  and  _184
REMARK   83  A    between atoms: _184  and  _185
REMARK   84  A    between atoms: _188  and  _190
REMARK   85  A    between atoms: _190  and  _191
REMARK   86  A    between atoms: _190  and  _193
REMARK   87  A    between atoms: _193  and  _194
REMARK   88  A    between atoms: _194  and  _195
REMARK   89  A    between atoms: _198  and  _200
REMARK   90  A    between atoms: _200  and  _201
REMARK   91  A    between atoms: _204  and  _206
REMARK   92  A    between atoms: _206  and  _207
REMARK   93  A    between atoms: _209  and  _211
REMARK   94  A    between atoms: _211  and  _212
REMARK   95  A    between atoms: _212  and  _213
REMARK   96  A    between atoms: _212  and  _214
REMARK   97  A    between atoms: _214  and  _216
REMARK   98  A    between atoms: _216  and  _217
REMARK   99  A    between atoms: _216  and  _219
REMARK  100  A    between atoms: _219  and  _220
REMARK  101  A    between atoms: _223  and  _225
REMARK  102  A    between atoms: _225  and  _226
REMARK  103  A    between atoms: _225  and  _228
REMARK  104  A    between atoms: _228  and  _229
REMARK  105  A    between atoms: _232  and  _234
REMARK  106  A    between atoms: _234  and  _235
REMARK  107  A    between atoms: _234  and  _237
REMARK  108  A    between atoms: _237  and  _238
REMARK  109  A    between atoms: _238  and  _239
REMARK  110  A    between atoms: _244  and  _246
REMARK  111  A    between atoms: _246  and  _247
REMARK  112  A    between atoms: _246  and  _249
REMARK  113  A    between atoms: _249  and  _250
REMARK  114  A    between atoms: _250  and  _251
REMARK  115  A    between atoms: _256  and  _258
REMARK  116  A    between atoms: _258  and  _259
REMARK  117  A    between atoms: _258  and  _261
REMARK  118  A    between atoms: _261  and  _262
REMARK  119  A    between atoms: _265  and  _267
REMARK  120  A    between atoms: _267  and  _268
REMARK  121  A    between atoms: _267  and  _270
REMARK  122  A    between atoms: _270  and  _271
REMARK  123  A    between atoms: _275  and  _276
REMARK  124  A    between atoms: _281  and  _283
REMARK  125  A    between atoms: _283  and  _284
REMARK  126  A    between atoms: _286  and  _288
REMARK  127  A    between atoms: _288  and  _289
REMARK  128  A    between atoms: _288  and  _291
REMARK  129  A    between atoms: _291  and  _292
REMARK  130  A    between atoms: _297  and  _299
REMARK  131  A    between atoms: _299  and  _300
REMARK  132  A    between atoms: _299  and  _302
REMARK  133  A    between atoms: _302  and  _303
REMARK  134  A    between atoms: _303  and  _304
REMARK  135  A    between atoms: _307  and  _309
REMARK  136  A    between atoms: _309  and  _310
REMARK  137  A    between atoms: _309  and  _312
REMARK  138  A    between atoms: _312  and  _313
REMARK  139  A    between atoms: _319  and  _321
REMARK  140  A    between atoms: _321  and  _322
REMARK  141  A    between atoms: _321  and  _324
REMARK  142  A    between atoms: _324  and  _325
REMARK  143  A    between atoms: _325  and  _326
REMARK  144  A    between atoms: _326  and  _327
REMARK  145  A    between atoms: _336  and  _338
REMARK  146  A    between atoms: _338  and  _339
REMARK  147  A    between atoms: _338  and  _341
REMARK  148  A    between atoms: _344  and  _346
REMARK  149  A    between atoms: _346  and  _347
REMARK  150  A    between atoms: _346  and  _349
REMARK  151  A    between atoms: _349  and  _350
REMARK  152  A    between atoms: _353  and  _355
REMARK  153  A    between atoms: _355  and  _356
REMARK  154  A    between atoms: _355  and  _358
REMARK  155  A    between atoms: _358  and  _359
REMARK  156  A    between atoms: _362  and  _364
REMARK  157  A    between atoms: _364  and  _365
REMARK  158  A    between atoms: _364  and  _367
REMARK  159  A    between atoms: _367  and  _368
REMARK  160  A    between atoms: _368  and  _369
REMARK  161  A    between atoms: _371  and  _373
REMARK  162  A    between atoms: _373  and  _374
REMARK  163  A    between atoms: _373  and  _376
REMARK  164  A    between atoms: _376  and  _377
REMARK  165  A    between atoms: _377  and  _378
REMARK  166  A    between atoms: _383  and  _385
REMARK  167  A    between atoms: _385  and  _386
REMARK  168  A    between atoms: _385  and  _388
REMARK  169  A    between atoms: _388  and  _389
REMARK  170  A    between atoms: _392  and  _394
REMARK  171  A    between atoms: _394  and  _395
REMARK  172  A    between atoms: _394  and  _397
REMARK  173  A    between atoms: _397  and  _398
REMARK  174  A    between atoms: _403  and  _405
REMARK  175  A    between atoms: _405  and  _406
REMARK  176  A    between atoms: _405  and  _408
REMARK  177  A    between atoms: _408  and  _409
REMARK  178  A    between atoms: _409  and  _410
REMARK  179  A    between atoms: _410  and  _411
REMARK  180  A    between atoms: _411  and  _412
REMARK  181  A    between atoms: _416  and  _418
REMARK  182  A    between atoms: _418  and  _419
REMARK  183  A    between atoms: _418  and  _421
REMARK  184  A    between atoms: _421  and  _422
REMARK  185  A    between atoms: _425  and  _427
REMARK  186  A    between atoms: _427  and  _428
REMARK  187  A    between atoms: _427  and  _430
REMARK  188  A    between atoms: _430  and  _431
REMARK  189  A    between atoms: _434  and  _436
REMARK  190  A    between atoms: _436  and  _437
REMARK  191  A    between atoms: _436  and  _439
REMARK  192  A    between atoms: _439  and  _440
REMARK  193  A    between atoms: _440  and  _441
REMARK  194  A    between atoms: _441  and  _442
REMARK  195  A    between atoms: _451  and  _453
REMARK  196  A    between atoms: _453  and  _454
REMARK  197  A    between atoms: _453  and  _456
REMARK  198  A    between atoms: _456  and  _457
REMARK  199  A    between atoms: _460  and  _462
REMARK  200  A    between atoms: _462  and  _463
REMARK  201  A    between atoms: _462  and  _465
REMARK  202  A    between atoms: _465  and  _466
REMARK  203  A    between atoms: _469  and  _471
REMARK  204  A    between atoms: _471  and  _472
REMARK  205  A    between atoms: _471  and  _474
REMARK  206  A    between atoms: _474  and  _475
REMARK  207  A    between atoms: _477  and  _479
REMARK  208  A    between atoms: _479  and  _480
REMARK  209  A    between atoms: _483  and  _485
REMARK  210  A    between atoms: _485  and  _486
REMARK  211  A    between atoms: _485  and  _488
REMARK  212  A    between atoms: _488  and  _489
REMARK  213  A    between atoms: _494  and  _496
REMARK  214  A    between atoms: _496  and  _497
REMARK  215  A    between atoms: _496  and  _499
REMARK  216  A    between atoms: _499  and  _500
REMARK  217  A    between atoms: _503  and  _505
REMARK  218  A    between atoms: _505  and  _506
REMARK  219  A    between atoms: _508  and  _510
REMARK  220  A    between atoms: _510  and  _511
REMARK  221  A    between atoms: _510  and  _513
REMARK  222  A    between atoms: _513  and  _514
REMARK  223  A    between atoms: _514  and  _515
REMARK  224  A    between atoms: _518  and  _520
REMARK  225  A    between atoms: _520  and  _521
REMARK  226  A    between atoms: _520  and  _523
REMARK  227  A    between atoms: _523  and  _524
REMARK  228  A    between atoms: _527  and  _529
REMARK  229  A    between atoms: _529  and  _530
REMARK  230  A    between atoms: _529  and  _532
REMARK  231  A    between atoms: _532  and  _533
REMARK  232  A    between atoms: _533  and  _534
REMARK  233  A    between atoms: _534  and  _535
REMARK                            x       y       z     vdW  Elec       q    Type
REMARK                         _______ _______ _______ _____ _____    ______ ____
ROOT
ATOM      1  NE  ARG A   1      -2.754   9.881   9.699  0.00  0.00    -0.265 N 
ATOM      2  HE  ARG A   1      -2.234  10.395  10.438  0.00  0.00    +0.259 HD
ATOM      3  CZ  ARG A   1      -3.816  10.469   9.162  0.00  0.00    +0.342 C 
ATOM      4  NH2 ARG A   1      -4.210  11.662   9.626  0.00  0.00    -0.292 N 
ATOM      5 HH21 ARG A   1      -3.685  12.118  10.399  0.00  0.00    +0.255 HD
ATOM      6 HH22 ARG A   1      -5.041  12.132   9.213  0.00  0.00    +0.255 HD
ATOM      7  NH1 ARG A   1      -4.511   9.852   8.175  0.00  0.00    -0.292 N 
ATOM      8 HH11 ARG A   1      -4.213   8.915   7.836  0.00  0.00    +0.255 HD
ATOM      9 HH12 ARG A   1      -5.343  10.316   7.757  0.00  0.00    +0.255 HD
ENDROOT
BRANCH   1  10
ATOM     10  CD  ARG A   1      -2.266   8.546   9.314  0.00  0.00    +0.174 C 
BRANCH  10  11
ATOM     11  CG  ARG A   1      -0.975   8.576   8.526  0.00  0.00    +0.045 C 
BRANCH  11  12
ATOM     12  CB  ARG A   1      -0.307   7.204   8.604  0.00  0.00    +0.029 C 
BRANCH  12  13
ATOM     13  CA  ARG A   1       1.032   7.034   7.857  0.00  0.00    +0.133 C 
BRANCH  13  14
ATOM     14  N   ARG A   1       2.099   7.865   8.453  0.00  0.00    -0.239 NA
ATOM     15  H   ARG A   1       1.873   8.736   8.974  0.00  0.00    +0.142 HD
ENDBRANCH  13  14
BRANCH  13  16
ATOM     16  C   ARG A   1       0.881   7.325   6.336  0.00  0.00    +0.224 C 
ATOM     17  O   ARG A   1      -0.054   6.849   5.700  0.00  0.00    -0.287 OA
ENDBRANCH  13  16
ENDBRANCH  12  13
ENDBRANCH  11  12
ENDBRANCH  10  11
ENDBRANCH   1  10
TORSDOF 6
REMARK  Name = ../refined-set-2016/4ncn/4ncn_pocket.pdb
REMARK  233 active torsions:
REMARK  status: ('A' for Active; 'I' for Inactive)
REMARK    1  A    between atoms: _1  and  _3
REMARK    2  A    between atoms: _3  and  _4
REMARK    3  A    between atoms: _3  and  _6
REMARK    4  A    between atoms: _6  and  _7
REMARK    5  A    between atoms: _10  and  _12
REMARK    6  A    between atoms: _12  and  _13
REMARK    7  A    between atoms: _12  and  _15
REMARK    8  A    between atoms: _15  and  _16
REMARK    9  A    between atoms: _19  and  _21
REMARK   10  A    between atoms: _21  and  _22
REMARK   11  A    between atoms: _24  and  _26
REMARK   12  A    between atoms: _26  and  _27
REMARK   13  A    between atoms: _26  and  _29
REMARK   14  A    between atoms: _29  and  _30
REMARK   15  A    between atoms: _35  and  _37
REMARK   16  A    between atoms: _37  and  _38
REMARK   17  A    between atoms: _37  and  _40
REMARK   18  A    between atoms: _43  and  _45
REMARK   19  A    between atoms: _45  and  _46
REMARK   20  A    between atoms: _45  and  _48
REMARK   21  A    between atoms: _48  and  _49
REMARK   22  A    between atoms: _52  and  _54
REMARK   23  A    between atoms: _54  and  _55
REMARK   24  A    between atoms: _54  and  _57
REMARK   25  A    between atoms: _57  and  _58
REMARK   26  A    between atoms: _61  and  _63
REMARK   27  A    between atoms: _63  and  _64
REMARK   28  A    between atoms: _66  and  _68
REMARK   29  A    between atoms: _68  and  _69
REMARK   30  A    between atoms: _68  and  _71
REMARK   31  A    between atoms: _71  and  _72
REMARK   32  A    between atoms: _72  and  _73
REMARK   33  A    between atoms: _73  and  _74
REMARK   34  A    between atoms: _74  and  _75
REMARK   35  A    between atoms: _79  and  _81
REMARK   36  A    between atoms: _81  and  _82
REMARK   37  A    between atoms: _81  and  _84
REMARK   38  A    between atoms: _84  and  _85
REMARK   39  A    between atoms: _88  and  _90
REMARK   40  A    between atoms: _90  and  _91
REMARK   41  A    between atoms: _90  and  _93
REMARK   42  A    between atoms: _93  and  _94
REMARK   43  A    between atoms: _94  and  _95
REMARK   44  A    between atoms: _95  and  _96
REMARK   45  A    between atoms: _96  and  _97
REMARK   46  A    between atoms: _101  and  _103
REMARK   47  A    between atoms: _103  and  _104
REMARK   48  A    between atoms: _103  and  _106
REMARK   49  A    between atoms: _106  and  _107
REMARK   50  A    between atoms: _110  and  _112
REMARK   51  A    between atoms: _112  and  _113
REMARK   52  A    between atoms: _112  and  _115
REMARK   53  A    between atoms: _115  and  _116
REMARK   54  A    between atoms: _119  and  _121
REMARK   55  A    between atoms: _121  and  _122
REMARK   56  A    between atoms: _121  and  _124
REMARK   57  A    between atoms: _124  and  _125
REMARK   58  A    between atoms: _128  and  _130
REMARK   59  A    between atoms: _130  and  _131
REMARK   60  A    between atoms: _130  and  _133
REMARK   61  A    between atoms: _133  and  _134
REMARK   62  A    between atoms: _134  and  _135
REMARK   63  A    between atoms: _135  and  _136
REMARK   64  A    between atoms: _136  and  _137
REMARK   65  A    between atoms: _141  and  _143
REMARK   66  A    between atoms: _143  and  _144
REMARK   67  A    between atoms: _143  and  _146
REMARK   68  A    between atoms: _146  and  _147
REMARK   69  A    between atoms: _147  and  _148
REMARK   70  A    between atoms: _148  and  _149
REMARK   71  A    between atoms: _158  and  _160
REMARK   72  A    between atoms: _160  and  _161
REMARK   73  A    between atoms: _160  and  _163
REMARK   74  A    between atoms: _166  and  _168
REMARK   75  A    between atoms: _168  and  _169
REMARK   76  A    between atoms: _168  and  _171
REMARK   77  A    between atoms: _171  and  _172
REMARK   78  A    between atoms: _172  and  _173
REMARK   79  A    between atoms: _178  and  _180
REMARK   80  A    between atoms: _180  and  _181
REMARK   81  A    between atoms: _180  and  _183
REMARK   82  A    between atoms: _183  and  _184
REMARK   83  A    between atoms: _184  and  _185
REMARK   84  A    between atoms: _188  and  _190
REMARK   85  A    between atoms: _190  and  _191
REMARK   86  A    between atoms: _190  and  _193
REMARK   87  A    between atoms: _193  and  _194
REMARK   88  A    between atoms: _194  and  _195
REMARK   89  A    between atoms: _198  and  _200
REMARK   90  A    between atoms: _200  and  _201
REMARK   91  A    between atoms: _204  and  _206
REMARK   92  A    between atoms: _206  and  _207
REMARK   93  A    between atoms: _209  and  _211
REMARK   94  A    between atoms: _211  and  _212
REMARK   95  A    between atoms: _212  and  _213
REMARK   96  A    between atoms: _212  and  _214
REMARK   97  A    between atoms: _214  and  _216
REMARK   98  A    between atoms: _216  and  _217
REMARK   99  A    between atoms: _216  and  _219
REMARK  100  A    between atoms: _219  and  _220
REMARK  101  A    between atoms: _223  and  _225
REMARK  102  A    between atoms: _225  and  _226
REMARK  103  A    between atoms: _225  and  _228
REMARK  104  A    between atoms: _228  and  _229
REMARK  105  A    between atoms: _232  and  _234
REMARK  106  A    between atoms: _234  and  _235
REMARK  107  A    between atoms: _234  and  _237
REMARK  108  A    between atoms: _237  and  _238
REMARK  109  A    between atoms: _238  and  _239
REMARK  110  A    between atoms: _244  and  _246
REMARK  111  A    between atoms: _246  and  _247
REMARK  112  A    between atoms: _246  and  _249
REMARK  113  A    between atoms: _249  and  _250
REMARK  114  A    between atoms: _250  and  _251
REMARK  115  A    between atoms: _256  and  _258
REMARK  116  A    between atoms: _258  and  _259
REMARK  117  A    between atoms: _258  and  _261
REMARK  118  A    between atoms: _261  and  _262
REMARK  119  A    between atoms: _265  and  _267
REMARK  120  A    between atoms: _267  and  _268
REMARK  121  A    between atoms: _267  and  _270
REMARK  122  A    between atoms: _270  and  _271
REMARK  123  A    between atoms: _275  and  _276
REMARK  124  A    between atoms: _281  and  _283
REMARK  125  A    between atoms: _283  and  _284
REMARK  126  A    between atoms: _286  and  _288
REMARK  127  A    between atoms: _288  and  _289
REMARK  128  A    between atoms: _288  and  _291
REMARK  129  A    between atoms: _291  and  _292
REMARK  130  A    between atoms: _297  and  _299
REMARK  131  A    between atoms: _299  and  _300
REMARK  132  A    between atoms: _299  and  _302
REMARK  133  A    between atoms: _302  and  _303
REMARK  134  A    between atoms: _303  and  _304
REMARK  135  A    between atoms: _307  and  _309
REMARK  136  A    between atoms: _309  and  _310
REMARK  137  A    between atoms: _309  and  _312
REMARK  138  A    between atoms: _312  and  _313
REMARK  139  A    between atoms: _319  and  _321
REMARK  140  A    between atoms: _321  and  _322
REMARK  141  A    between atoms: _321  and  _324
REMARK  142  A    between atoms: _324  and  _325
REMARK  143  A    between atoms: _325  and  _326
REMARK  144  A    between atoms: _326  and  _327
REMARK  145  A    between atoms: _336  and  _338
REMARK  146  A    between atoms: _338  and  _339
REMARK  147  A    between atoms: _338  and  _341
REMARK  148  A    between atoms: _344  and  _346
REMARK  149  A    between atoms: _346  and  _347
REMARK  150  A    between atoms: _346  and  _349
REMARK  151  A    between atoms: _349  and  _350
REMARK  152  A    between atoms: _353  and  _355
REMARK  153  A    between atoms: _355  and  _356
REMARK  154  A    between atoms: _355  and  _358
REMARK  155  A    between atoms: _358  and  _359
REMARK  156  A    between atoms: _362  and  _364
REMARK  157  A    between atoms: _364  and  _365
REMARK  158  A    between atoms: _364  and  _367
REMARK  159  A    between atoms: _367  and  _368
REMARK  160  A    between atoms: _368  and  _369
REMARK  161  A    between atoms: _371  and  _373
REMARK  162  A    between atoms: _373  and  _374
REMARK  163  A    between atoms: _373  and  _376
REMARK  164  A    between atoms: _376  and  _377
REMARK  165  A    between atoms: _377  and  _378
REMARK  166  A    between atoms: _383  and  _385
REMARK  167  A    between atoms: _385  and  _386
REMARK  168  A    between atoms: _385  and  _388
REMARK  169  A    between atoms: _388  and  _389
REMARK  170  A    between atoms: _392  and  _394
REMARK  171  A    between atoms: _394  and  _395
REMARK  172  A    between atoms: _394  and  _397
REMARK  173  A    between atoms: _397  and  _398
REMARK  174  A    between atoms: _403  and  _405
REMARK  175  A    between atoms: _405  and  _406
REMARK  176  A    between atoms: _405  and  _408
REMARK  177  A    between atoms: _408  and  _409
REMARK  178  A    between atoms: _409  and  _410
REMARK  179  A    between atoms: _410  and  _411
REMARK  180  A    between atoms: _411  and  _412
REMARK  181  A    between atoms: _416  and  _418
REMARK  182  A    between atoms: _418  and  _419
REMARK  183  A    between atoms: _418  and  _421
REMARK  184  A    between atoms: _421  and  _422
REMARK  185  A    between atoms: _425  and  _427
REMARK  186  A    between atoms: _427  and  _428
REMARK  187  A    between atoms: _427  and  _430
REMARK  188  A    between atoms: _430  and  _431
REMARK  189  A    between atoms: _434  and  _436
REMARK  190  A    between atoms: _436  and  _437
REMARK  191  A    between atoms: _436  and  _439
REMARK  192  A    between atoms: _439  and  _440
REMARK  193  A    between atoms: _440  and  _441
REMARK  194  A    between atoms: _441  and  _442
REMARK  195  A    between atoms: _451  and  _453
REMARK  196  A    between atoms: _453  and  _454
REMARK  197  A    between atoms: _453  and  _456
REMARK  198  A    between atoms: _456  and  _457
REMARK  199  A    between atoms: _460  and  _462
REMARK  200  A    between atoms: _462  and  _463
REMARK  201  A    between atoms: _462  and  _465
REMARK  202  A    between atoms: _465  and  _466
REMARK  203  A    between atoms: _469  and  _471
REMARK  204  A    between atoms: _471  and  _472
REMARK  205  A    between atoms: _471  and  _474
REMARK  206  A    between atoms: _474  and  _475
REMARK  207  A    between atoms: _477  and  _479
REMARK  208  A    between atoms: _479  and  _480
REMARK  209  A    between atoms: _483  and  _485
REMARK  210  A    between atoms: _485  and  _486
REMARK  211  A    between atoms: _485  and  _488
REMARK  212  A    between atoms: _488  and  _489
REMARK  213  A    between atoms: _494  and  _496
REMARK  214  A    between atoms: _496  and  _497
REMARK  215  A    between atoms: _496  and  _499
REMARK  216  A    between atoms: _499  and  _500
REMARK  217  A    between atoms: _503  and  _505
REMARK  218  A    between atoms: _505  and  _506
REMARK  219  A    between atoms: _508  and  _510
REMARK  220  A    between atoms: _510  and  _511
REMARK  221  A    between atoms: _510  and  _513
REMARK  222  A    between atoms: _513  and  _514
REMARK  223  A    between atoms: _514  and  _515
REMARK  224  A    between atoms: _518  and  _520
REMARK  225  A    between atoms: _520  and  _521
REMARK  226  A    between atoms: _520  and  _523
REMARK  227  A    between atoms: _523  and  _524
REMARK  228  A    between atoms: _527  and  _529
REMARK  229  A    between atoms: _529  and  _530
REMARK  230  A    between atoms: _529  and  _532
REMARK  231  A    between atoms: _532  and  _533
REMARK  232  A    between atoms: _533  and  _534
REMARK  233  A    between atoms: _534  and  _535
REMARK                            x       y       z     vdW  Elec       q    Type
REMARK                         _______ _______ _______ _____ _____    ______ ____
ROOT
ATOM      1 MG   UNL     1      -8.272  13.241  11.710  0.00  0.00    +0.000 Mg
ATOM      2  O   UNL     1      -7.130  12.768  13.521  0.00  0.00    +0.000 OA
ATOM      3  O   UNL     1      -9.210  13.694   9.869  0.00  0.00    +0.000 OA
ENDROOT
TORSDOF 0
REMARK  Name = ../refined-set-2016/4ncn/4ncn_pocket.pdb
REMARK  233 active torsions:
REMARK  status: ('A' for Active; 'I' for Inactive)
REMARK    1  A    between atoms: _1  and  _3
REMARK    2  A    between atoms: _3  and  _4
REMARK    3  A    between atoms: _3  and  _6
REMARK    4  A    between atoms: _6  and  _7
REMARK    5  A    between atoms: _10  and  _12
REMARK    6  A    between atoms: _12  and  _13
REMARK    7  A    between atoms: _12  and  _15
REMARK    8  A    between atoms: _15  and  _16
REMARK    9  A    between atoms: _19  and  _21
REMARK   10  A    between atoms: _21  and  _22
REMARK   11  A    between atoms: _24  and  _26
REMARK   12  A    between atoms: _26  and  _27
REMARK   13  A    between atoms: _26  and  _29
REMARK   14  A    between atoms: _29  and  _30
REMARK   15  A    between atoms: _35  and  _37
REMARK   16  A    between atoms: _37  and  _38
REMARK   17  A    between atoms: _37  and  _40
REMARK   18  A    between atoms: _43  and  _45
REMARK   19  A    between atoms: _45  and  _46
REMARK   20  A    between atoms: _45  and  _48
REMARK   21  A    between atoms: _48  and  _49
REMARK   22  A    between atoms: _52  and  _54
REMARK   23  A    between atoms: _54  and  _55
REMARK   24  A    between atoms: _54  and  _57
REMARK   25  A    between atoms: _57  and  _58
REMARK   26  A    between atoms: _61  and  _63
REMARK   27  A    between atoms: _63  and  _64
REMARK   28  A    between atoms: _66  and  _68
REMARK   29  A    between atoms: _68  and  _69
REMARK   30  A    between atoms: _68  and  _71
REMARK   31  A    between atoms: _71  and  _72
REMARK   32  A    between atoms: _72  and  _73
REMARK   33  A    between atoms: _73  and  _74
REMARK   34  A    between atoms: _74  and  _75
REMARK   35  A    between atoms: _79  and  _81
REMARK   36  A    between atoms: _81  and  _82
REMARK   37  A    between atoms: _81  and  _84
REMARK   38  A    between atoms: _84  and  _85
REMARK   39  A    between atoms: _88  and  _90
REMARK   40  A    between atoms: _90  and  _91
REMARK   41  A    between atoms: _90  and  _93
REMARK   42  A    between atoms: _93  and  _94
REMARK   43  A    between atoms: _94  and  _95
REMARK   44  A    between atoms: _95  and  _96
REMARK   45  A    between atoms: _96  and  _97
REMARK   46  A    between atoms: _101  and  _103
REMARK   47  A    between atoms: _103  and  _104
REMARK   48  A    between atoms: _103  and  _106
REMARK   49  A    between atoms: _106  and  _107
REMARK   50  A    between atoms: _110  and  _112
REMARK   51  A    between atoms: _112  and  _113
REMARK   52  A    between atoms: _112  and  _115
REMARK   53  A    between atoms: _115  and  _116
REMARK   54  A    between atoms: _119  and  _121
REMARK   55  A    between atoms: _121  and  _122
REMARK   56  A    between atoms: _121  and  _124
REMARK   57  A    between atoms: _124  and  _125
REMARK   58  A    between atoms: _128  and  _130
REMARK   59  A    between atoms: _130  and  _131
REMARK   60  A    between atoms: _130  and  _133
REMARK   61  A    between atoms: _133  and  _134
REMARK   62  A    between atoms: _134  and  _135
REMARK   63  A    between atoms: _135  and  _136
REMARK   64  A    between atoms: _136  and  _137
REMARK   65  A    between atoms: _141  and  _143
REMARK   66  A    between atoms: _143  and  _144
REMARK   67  A    between atoms: _143  and  _146
REMARK   68  A    between atoms: _146  and  _147
REMARK   69  A    between atoms: _147  and  _148
REMARK   70  A    between atoms: _148  and  _149
REMARK   71  A    between atoms: _158  and  _160
REMARK   72  A    between atoms: _160  and  _161
REMARK   73  A    between atoms: _160  and  _163
REMARK   74  A    between atoms: _166  and  _168
REMARK   75  A    between atoms: _168  and  _169
REMARK   76  A    between atoms: _168  and  _171
REMARK   77  A    between atoms: _171  and  _172
REMARK   78  A    between atoms: _172  and  _173
REMARK   79  A    between atoms: _178  and  _180
REMARK   80  A    between atoms: _180  and  _181
REMARK   81  A    between atoms: _180  and  _183
REMARK   82  A    between atoms: _183  and  _184
REMARK   83  A    between atoms: _184  and  _185
REMARK   84  A    between atoms: _188  and  _190
REMARK   85  A    between atoms: _190  and  _191
REMARK   86  A    between atoms: _190  and  _193
REMARK   87  A    between atoms: _193  and  _194
REMARK   88  A    between atoms: _194  and  _195
REMARK   89  A    between atoms: _198  and  _200
REMARK   90  A    between atoms: _200  and  _201
REMARK   91  A    between atoms: _204  and  _206
REMARK   92  A    between atoms: _206  and  _207
REMARK   93  A    between atoms: _209  and  _211
REMARK   94  A    between atoms: _211  and  _212
REMARK   95  A    between atoms: _212  and  _213
REMARK   96  A    between atoms: _212  and  _214
REMARK   97  A    between atoms: _214  and  _216
REMARK   98  A    between atoms: _216  and  _217
REMARK   99  A    between atoms: _216  and  _219
REMARK  100  A    between atoms: _219  and  _220
REMARK  101  A    between atoms: _223  and  _225
REMARK  102  A    between atoms: _225  and  _226
REMARK  103  A    between atoms: _225  and  _228
REMARK  104  A    between atoms: _228  and  _229
REMARK  105  A    between atoms: _232  and  _234
REMARK  106  A    between atoms: _234  and  _235
REMARK  107  A    between atoms: _234  and  _237
REMARK  108  A    between atoms: _237  and  _238
REMARK  109  A    between atoms: _238  and  _239
REMARK  110  A    between atoms: _244  and  _246
REMARK  111  A    between atoms: _246  and  _247
REMARK  112  A    between atoms: _246  and  _249
REMARK  113  A    between atoms: _249  and  _250
REMARK  114  A    between atoms: _250  and  _251
REMARK  115  A    between atoms: _256  and  _258
REMARK  116  A    between atoms: _258  and  _259
REMARK  117  A    between atoms: _258  and  _261
REMARK  118  A    between atoms: _261  and  _262
REMARK  119  A    between atoms: _265  and  _267
REMARK  120  A    between atoms: _267  and  _268
REMARK  121  A    between atoms: _267  and  _270
REMARK  122  A    between atoms: _270  and  _271
REMARK  123  A    between atoms: _275  and  _276
REMARK  124  A    between atoms: _281  and  _283
REMARK  125  A    between atoms: _283  and  _284
REMARK  126  A    between atoms: _286  and  _288
REMARK  127  A    between atoms: _288  and  _289
REMARK  128  A    between atoms: _288  and  _291
REMARK  129  A    between atoms: _291  and  _292
REMARK  130  A    between atoms: _297  and  _299
REMARK  131  A    between atoms: _299  and  _300
REMARK  132  A    between atoms: _299  and  _302
REMARK  133  A    between atoms: _302  and  _303
REMARK  134  A    between atoms: _303  and  _304
REMARK  135  A    between atoms: _307  and  _309
REMARK  136  A    between atoms: _309  and  _310
REMARK  137  A    between atoms: _309  and  _312
REMARK  138  A    between atoms: _312  and  _313
REMARK  139  A    between atoms: _319  and  _321
REMARK  140  A    between atoms: _321  and  _322
REMARK  141  A    between atoms: _321  and  _324
REMARK  142  A    between atoms: _324  and  _325
REMARK  143  A    between atoms: _325  and  _326
REMARK  144  A    between atoms: _326  and  _327
REMARK  145  A    between atoms: _336  and  _338
REMARK  146  A    between atoms: _338  and  _339
REMARK  147  A    between atoms: _338  and  _341
REMARK  148  A    between atoms: _344  and  _346
REMARK  149  A    between atoms: _346  and  _347
REMARK  150  A    between atoms: _346  and  _349
REMARK  151  A    between atoms: _349  and  _350
REMARK  152  A    between atoms: _353  and  _355
REMARK  153  A    between atoms: _355  and  _356
REMARK  154  A    between atoms: _355  and  _358
REMARK  155  A    between atoms: _358  and  _359
REMARK  156  A    between atoms: _362  and  _364
REMARK  157  A    between atoms: _364  and  _365
REMARK  158  A    between atoms: _364  and  _367
REMARK  159  A    between atoms: _367  and  _368
REMARK  160  A    between atoms: _368  and  _369
REMARK  161  A    between atoms: _371  and  _373
REMARK  162  A    between atoms: _373  and  _374
REMARK  163  A    between atoms: _373  and  _376
REMARK  164  A    between atoms: _376  and  _377
REMARK  165  A    between atoms: _377  and  _378
REMARK  166  A    between atoms: _383  and  _385
REMARK  167  A    between atoms: _385  and  _386
REMARK  168  A    between atoms: _385  and  _388
REMARK  169  A    between atoms: _388  and  _389
REMARK  170  A    between atoms: _392  and  _394
REMARK  171  A    between atoms: _394  and  _395
REMARK  172  A    between atoms: _394  and  _397
REMARK  173  A    between atoms: _397  and  _398
REMARK  174  A    between atoms: _403  and  _405
REMARK  175  A    between atoms: _405  and  _406
REMARK  176  A    between atoms: _405  and  _408
REMARK  177  A    between atoms: _408  and  _409
REMARK  178  A    between atoms: _409  and  _410
REMARK  179  A    between atoms: _410  and  _411
REMARK  180  A    between atoms: _411  and  _412
REMARK  181  A    between atoms: _416  and  _418
REMARK  182  A    between atoms: _418  and  _419
REMARK  183  A    between atoms: _418  and  _421
REMARK  184  A    between atoms: _421  and  _422
REMARK  185  A    between atoms: _425  and  _427
REMARK  186  A    between atoms: _427  and  _428
REMARK  187  A    between atoms: _427  and  _430
REMARK  188  A    between atoms: _430  and  _431
REMARK  189  A    between atoms: _434  and  _436
REMARK  190  A    between atoms: _436  and  _437
REMARK  191  A    between atoms: _436  and  _439
REMARK  192  A    between atoms: _439  and  _440
REMARK  193  A    between atoms: _440  and  _441
REMARK  194  A    between atoms: _441  and  _442
REMARK  195  A    between atoms: _451  and  _453
REMARK  196  A    between atoms: _453  and  _454
REMARK  197  A    between atoms: _453  and  _456
REMARK  198  A    between atoms: _456  and  _457
REMARK  199  A    between atoms: _460  and  _462
REMARK  200  A    between atoms: _462  and  _463
REMARK  201  A    between atoms: _462  and  _465
REMARK  202  A    between atoms: _465  and  _466
REMARK  203  A    between atoms: _469  and  _471
REMARK  204  A    between atoms: _471  and  _472
REMARK  205  A    between atoms: _471  and  _474
REMARK  206  A    between atoms: _474  and  _475
REMARK  207  A    between atoms: _477  and  _479
REMARK  208  A    between atoms: _479  and  _480
REMARK  209  A    between atoms: _483  and  _485
REMARK  210  A    between atoms: _485  and  _486
REMARK  211  A    between atoms: _485  and  _488
REMARK  212  A    between atoms: _488  and  _489
REMARK  213  A    between atoms: _494  and  _496
REMARK  214  A    between atoms: _496  and  _497
REMARK  215  A    between atoms: _496  and  _499
REMARK  216  A    between atoms: _499  and  _500
REMARK  217  A    between atoms: _503  and  _505
REMARK  218  A    between atoms: _505  and  _506
REMARK  219  A    between atoms: _508  and  _510
REMARK  220  A    between atoms: _510  and  _511
REMARK  221  A    between atoms: _510  and  _513
REMARK  222  A    between atoms: _513  and  _514
REMARK  223  A    between atoms: _514  and  _515
REMARK  224  A    between atoms: _518  and  _520
REMARK  225  A    between atoms: _520  and  _521
REMARK  226  A    between atoms: _520  and  _523
REMARK  227  A    between atoms: _523  and  _524
REMARK  228  A    between atoms: _527  and  _529
REMARK  229  A    between atoms: _529  and  _530
REMARK  230  A    between atoms: _529  and  _532
REMARK  231  A    between atoms: _532  and  _533
REMARK  232  A    between atoms: _533  and  _534
REMARK  233  A    between atoms: _534  and  _535
REMARK                            x       y       z     vdW  Elec       q    Type
REMARK                         _______ _______ _______ _____ _____    ______ ____
ROOT
ATOM      1  O   HOH     1     -11.853   9.338  12.883  0.00  0.00    +0.000 OA
ENDROOT
TORSDOF 0
REMARK  Name = ../refined-set-2016/4ncn/4ncn_pocket.pdb
REMARK  233 active torsions:
REMARK  status: ('A' for Active; 'I' for Inactive)
REMARK    1  A    between atoms: _1  and  _3
REMARK    2  A    between atoms: _3  and  _4
REMARK    3  A    between atoms: _3  and  _6
REMARK    4  A    between atoms: _6  and  _7
REMARK    5  A    between atoms: _10  and  _12
REMARK    6  A    between atoms: _12  and  _13
REMARK    7  A    between atoms: _12  and  _15
REMARK    8  A    between atoms: _15  and  _16
REMARK    9  A    between atoms: _19  and  _21
REMARK   10  A    between atoms: _21  and  _22
REMARK   11  A    between atoms: _24  and  _26
REMARK   12  A    between atoms: _26  and  _27
REMARK   13  A    between atoms: _26  and  _29
REMARK   14  A    between atoms: _29  and  _30
REMARK   15  A    between atoms: _35  and  _37
REMARK   16  A    between atoms: _37  and  _38
REMARK   17  A    between atoms: _37  and  _40
REMARK   18  A    between atoms: _43  and  _45
REMARK   19  A    between atoms: _45  and  _46
REMARK   20  A    between atoms: _45  and  _48
REMARK   21  A    between atoms: _48  and  _49
REMARK   22  A    between atoms: _52  and  _54
REMARK   23  A    between atoms: _54  and  _55
REMARK   24  A    between atoms: _54  and  _57
REMARK   25  A    between atoms: _57  and  _58
REMARK   26  A    between atoms: _61  and  _63
REMARK   27  A    between atoms: _63  and  _64
REMARK   28  A    between atoms: _66  and  _68
REMARK   29  A    between atoms: _68  and  _69
REMARK   30  A    between atoms: _68  and  _71
REMARK   31  A    between atoms: _71  and  _72
REMARK   32  A    between atoms: _72  and  _73
REMARK   33  A    between atoms: _73  and  _74
REMARK   34  A    between atoms: _74  and  _75
REMARK   35  A    between atoms: _79  and  _81
REMARK   36  A    between atoms: _81  and  _82
REMARK   37  A    between atoms: _81  and  _84
REMARK   38  A    between atoms: _84  and  _85
REMARK   39  A    between atoms: _88  and  _90
REMARK   40  A    between atoms: _90  and  _91
REMARK   41  A    between atoms: _90  and  _93
REMARK   42  A    between atoms: _93  and  _94
REMARK   43  A    between atoms: _94  and  _95
REMARK   44  A    between atoms: _95  and  _96
REMARK   45  A    between atoms: _96  and  _97
REMARK   46  A    between atoms: _101  and  _103
REMARK   47  A    between atoms: _103  and  _104
REMARK   48  A    between atoms: _103  and  _106
REMARK   49  A    between atoms: _106  and  _107
REMARK   50  A    between atoms: _110  and  _112
REMARK   51  A    between atoms: _112  and  _113
REMARK   52  A    between atoms: _112  and  _115
REMARK   53  A    between atoms: _115  and  _116
REMARK   54  A    between atoms: _119  and  _121
REMARK   55  A    between atoms: _121  and  _122
REMARK   56  A    between atoms: _121  and  _124
REMARK   57  A    between atoms: _124  and  _125
REMARK   58  A    between atoms: _128  and  _130
REMARK   59  A    between atoms: _130  and  _131
REMARK   60  A    between atoms: _130  and  _133
REMARK   61  A    between atoms: _133  and  _134
REMARK   62  A    between atoms: _134  and  _135
REMARK   63  A    between atoms: _135  and  _136
REMARK   64  A    between atoms: _136  and  _137
REMARK   65  A    between atoms: _141  and  _143
REMARK   66  A    between atoms: _143  and  _144
REMARK   67  A    between atoms: _143  and  _146
REMARK   68  A    between atoms: _146  and  _147
REMARK   69  A    between atoms: _147  and  _148
REMARK   70  A    between atoms: _148  and  _149
REMARK   71  A    between atoms: _158  and  _160
REMARK   72  A    between atoms: _160  and  _161
REMARK   73  A    between atoms: _160  and  _163
REMARK   74  A    between atoms: _166  and  _168
REMARK   75  A    between atoms: _168  and  _169
REMARK   76  A    between atoms: _168  and  _171
REMARK   77  A    between atoms: _171  and  _172
REMARK   78  A    between atoms: _172  and  _173
REMARK   79  A    between atoms: _178  and  _180
REMARK   80  A    between atoms: _180  and  _181
REMARK   81  A    between atoms: _180  and  _183
REMARK   82  A    between atoms: _183  and  _184
REMARK   83  A    between atoms: _184  and  _185
REMARK   84  A    between atoms: _188  and  _190
REMARK   85  A    between atoms: _190  and  _191
REMARK   86  A    between atoms: _190  and  _193
REMARK   87  A    between atoms: _193  and  _194
REMARK   88  A    between atoms: _194  and  _195
REMARK   89  A    between atoms: _198  and  _200
REMARK   90  A    between atoms: _200  and  _201
REMARK   91  A    between atoms: _204  and  _206
REMARK   92  A    between atoms: _206  and  _207
REMARK   93  A    between atoms: _209  and  _211
REMARK   94  A    between atoms: _211  and  _212
REMARK   95  A    between atoms: _212  and  _213
REMARK   96  A    between atoms: _212  and  _214
REMARK   97  A    between atoms: _214  and  _216
REMARK   98  A    between atoms: _216  and  _217
REMARK   99  A    between atoms: _216  and  _219
REMARK  100  A    between atoms: _219  and  _220
REMARK  101  A    between atoms: _223  and  _225
REMARK  102  A    between atoms: _225  and  _226
REMARK  103  A    between atoms: _225  and  _228
REMARK  104  A    between atoms: _228  and  _229
REMARK  105  A    between atoms: _232  and  _234
REMARK  106  A    between atoms: _234  and  _235
REMARK  107  A    between atoms: _234  and  _237
REMARK  108  A    between atoms: _237  and  _238
REMARK  109  A    between atoms: _238  and  _239
REMARK  110  A    between atoms: _244  and  _246
REMARK  111  A    between atoms: _246  and  _247
REMARK  112  A    between atoms: _246  and  _249
REMARK  113  A    between atoms: _249  and  _250
REMARK  114  A    between atoms: _250  and  _251
REMARK  115  A    between atoms: _256  and  _258
REMARK  116  A    between atoms: _258  and  _259
REMARK  117  A    between atoms: _258  and  _261
REMARK  118  A    between atoms: _261  and  _262
REMARK  119  A    between atoms: _265  and  _267
REMARK  120  A    between atoms: _267  and  _268
REMARK  121  A    between atoms: _267  and  _270
REMARK  122  A    between atoms: _270  and  _271
REMARK  123  A    between atoms: _275  and  _276
REMARK  124  A    between atoms: _281  and  _283
REMARK  125  A    between atoms: _283  and  _284
REMARK  126  A    between atoms: _286  and  _288
REMARK  127  A    between atoms: _288  and  _289
REMARK  128  A    between atoms: _288  and  _291
REMARK  129  A    between atoms: _291  and  _292
REMARK  130  A    between atoms: _297  and  _299
REMARK  131  A    between atoms: _299  and  _300
REMARK  132  A    between atoms: _299  and  _302
REMARK  133  A    between atoms: _302  and  _303
REMARK  134  A    between atoms: _303  and  _304
REMARK  135  A    between atoms: _307  and  _309
REMARK  136  A    between atoms: _309  and  _310
REMARK  137  A    between atoms: _309  and  _312
REMARK  138  A    between atoms: _312  and  _313
REMARK  139  A    between atoms: _319  and  _321
REMARK  140  A    between atoms: _321  and  _322
REMARK  141  A    between atoms: _321  and  _324
REMARK  142  A    between atoms: _324  and  _325
REMARK  143  A    between atoms: _325  and  _326
REMARK  144  A    between atoms: _326  and  _327
REMARK  145  A    between atoms: _336  and  _338
REMARK  146  A    between atoms: _338  and  _339
REMARK  147  A    between atoms: _338  and  _341
REMARK  148  A    between atoms: _344  and  _346
REMARK  149  A    between atoms: _346  and  _347
REMARK  150  A    between atoms: _346  and  _349
REMARK  151  A    between atoms: _349  and  _350
REMARK  152  A    between atoms: _353  and  _355
REMARK  153  A    between atoms: _355  and  _356
REMARK  154  A    between atoms: _355  and  _358
REMARK  155  A    between atoms: _358  and  _359
REMARK  156  A    between atoms: _362  and  _364
REMARK  157  A    between atoms: _364  and  _365
REMARK  158  A    between atoms: _364  and  _367
REMARK  159  A    between atoms: _367  and  _368
REMARK  160  A    between atoms: _368  and  _369
REMARK  161  A    between atoms: _371  and  _373
REMARK  162  A    between atoms: _373  and  _374
REMARK  163  A    between atoms: _373  and  _376
REMARK  164  A    between atoms: _376  and  _377
REMARK  165  A    between atoms: _377  and  _378
REMARK  166  A    between atoms: _383  and  _385
REMARK  167  A    between atoms: _385  and  _386
REMARK  168  A    between atoms: _385  and  _388
REMARK  169  A    between atoms: _388  and  _389
REMARK  170  A    between atoms: _392  and  _394
REMARK  171  A    between atoms: _394  and  _395
REMARK  172  A    between atoms: _394  and  _397
REMARK  173  A    between atoms: _397  and  _398
REMARK  174  A    between atoms: _403  and  _405
REMARK  175  A    between atoms: _405  and  _406
REMARK  176  A    between atoms: _405  and  _408
REMARK  177  A    between atoms: _408  and  _409
REMARK  178  A    between atoms: _409  and  _410
REMARK  179  A    between atoms: _410  and  _411
REMARK  180  A    between atoms: _411  and  _412
REMARK  181  A    between atoms: _416  and  _418
REMARK  182  A    between atoms: _418  and  _419
REMARK  183  A    between atoms: _418  and  _421
REMARK  184  A    between atoms: _421  and  _422
REMARK  185  A    between atoms: _425  and  _427
REMARK  186  A    between atoms: _427  and  _428
REMARK  187  A    between atoms: _427  and  _430
REMARK  188  A    between atoms: _430  and  _431
REMARK  189  A    between atoms: _434  and  _436
REMARK  190  A    between atoms: _436  and  _437
REMARK  191  A    between atoms: _436  and  _439
REMARK  192  A    between atoms: _439  and  _440
REMARK  193  A    between atoms: _440  and  _441
REMARK  194  A    between atoms: _441  and  _442
REMARK  195  A    between atoms: _451  and  _453
REMARK  196  A    between atoms: _453  and  _454
REMARK  197  A    between atoms: _453  and  _456
REMARK  198  A    between atoms: _456  and  _457
REMARK  199  A    between atoms: _460  and  _462
REMARK  200  A    between atoms: _462  and  _463
REMARK  201  A    between atoms: _462  and  _465
REMARK  202  A    between atoms: _465  and  _466
REMARK  203  A    between atoms: _469  and  _471
REMARK  204  A    between atoms: _471  and  _472
REMARK  205  A    between atoms: _471  and  _474
REMARK  206  A    between atoms: _474  and  _475
REMARK  207  A    between atoms: _477  and  _479
REMARK  208  A    between atoms: _479  and  _480
REMARK  209  A    between atoms: _483  and  _485
REMARK  210  A    between atoms: _485  and  _486
REMARK  211  A    between atoms: _485  and  _488
REMARK  212  A    between atoms: _488  and  _489
REMARK  213  A    between atoms: _494  and  _496
REMARK  214  A    between atoms: _496  and  _497
REMARK  215  A    between atoms: _496  and  _499
REMARK  216  A    between atoms: _499  and  _500
REMARK  217  A    between atoms: _503  and  _505
REMARK  218  A    between atoms: _505  and  _506
REMARK  219  A    between atoms: _508  and  _510
REMARK  220  A    between atoms: _510  and  _511
REMARK  221  A    between atoms: _510  and  _513
REMARK  222  A    between atoms: _513  and  _514
REMARK  223  A    between atoms: _514  and  _515
REMARK  224  A    between atoms: _518  and  _520
REMARK  225  A    between atoms: _520  and  _521
REMARK  226  A    between atoms: _520  and  _523
REMARK  227  A    between atoms: _523  and  _524
REMARK  228  A    between atoms: _527  and  _529
REMARK  229  A    between atoms: _529  and  _530
REMARK  230  A    between atoms: _529  and  _532
REMARK  231  A    between atoms: _532  and  _533
REMARK  232  A    between atoms: _533  and  _534
REMARK  233  A    between atoms: _534  and  _535
REMARK                            x       y       z     vdW  Elec       q    Type
REMARK                         _______ _______ _______ _____ _____    ______ ____
ROOT
ATOM      1  O   HOH     1      -1.916  13.840  10.580  0.00  0.00    +0.000 OA
ENDROOT
TORSDOF 0
REMARK  Name = ../refined-set-2016/4ncn/4ncn_pocket.pdb
REMARK  233 active torsions:
REMARK  status: ('A' for Active; 'I' for Inactive)
REMARK    1  A    between atoms: _1  and  _3
REMARK    2  A    between atoms: _3  and  _4
REMARK    3  A    between atoms: _3  and  _6
REMARK    4  A    between atoms: _6  and  _7
REMARK    5  A    between atoms: _10  and  _12
REMARK    6  A    between atoms: _12  and  _13
REMARK    7  A    between atoms: _12  and  _15
REMARK    8  A    between atoms: _15  and  _16
REMARK    9  A    between atoms: _19  and  _21
REMARK   10  A    between atoms: _21  and  _22
REMARK   11  A    between atoms: _24  and  _26
REMARK   12  A    between atoms: _26  and  _27
REMARK   13  A    between atoms: _26  and  _29
REMARK   14  A    between atoms: _29  and  _30
REMARK   15  A    between atoms: _35  and  _37
REMARK   16  A    between atoms: _37  and  _38
REMARK   17  A    between atoms: _37  and  _40
REMARK   18  A    between atoms: _43  and  _45
REMARK   19  A    between atoms: _45  and  _46
REMARK   20  A    between atoms: _45  and  _48
REMARK   21  A    between atoms: _48  and  _49
REMARK   22  A    between atoms: _52  and  _54
REMARK   23  A    between atoms: _54  and  _55
REMARK   24  A    between atoms: _54  and  _57
REMARK   25  A    between atoms: _57  and  _58
REMARK   26  A    between atoms: _61  and  _63
REMARK   27  A    between atoms: _63  and  _64
REMARK   28  A    between atoms: _66  and  _68
REMARK   29  A    between atoms: _68  and  _69
REMARK   30  A    between atoms: _68  and  _71
REMARK   31  A    between atoms: _71  and  _72
REMARK   32  A    between atoms: _72  and  _73
REMARK   33  A    between atoms: _73  and  _74
REMARK   34  A    between atoms: _74  and  _75
REMARK   35  A    between atoms: _79  and  _81
REMARK   36  A    between atoms: _81  and  _82
REMARK   37  A    between atoms: _81  and  _84
REMARK   38  A    between atoms: _84  and  _85
REMARK   39  A    between atoms: _88  and  _90
REMARK   40  A    between atoms: _90  and  _91
REMARK   41  A    between atoms: _90  and  _93
REMARK   42  A    between atoms: _93  and  _94
REMARK   43  A    between atoms: _94  and  _95
REMARK   44  A    between atoms: _95  and  _96
REMARK   45  A    between atoms: _96  and  _97
REMARK   46  A    between atoms: _101  and  _103
REMARK   47  A    between atoms: _103  and  _104
REMARK   48  A    between atoms: _103  and  _106
REMARK   49  A    between atoms: _106  and  _107
REMARK   50  A    between atoms: _110  and  _112
REMARK   51  A    between atoms: _112  and  _113
REMARK   52  A    between atoms: _112  and  _115
REMARK   53  A    between atoms: _115  and  _116
REMARK   54  A    between atoms: _119  and  _121
REMARK   55  A    between atoms: _121  and  _122
REMARK   56  A    between atoms: _121  and  _124
REMARK   57  A    between atoms: _124  and  _125
REMARK   58  A    between atoms: _128  and  _130
REMARK   59  A    between atoms: _130  and  _131
REMARK   60  A    between atoms: _130  and  _133
REMARK   61  A    between atoms: _133  and  _134
REMARK   62  A    between atoms: _134  and  _135
REMARK   63  A    between atoms: _135  and  _136
REMARK   64  A    between atoms: _136  and  _137
REMARK   65  A    between atoms: _141  and  _143
REMARK   66  A    between atoms: _143  and  _144
REMARK   67  A    between atoms: _143  and  _146
REMARK   68  A    between atoms: _146  and  _147
REMARK   69  A    between atoms: _147  and  _148
REMARK   70  A    between atoms: _148  and  _149
REMARK   71  A    between atoms: _158  and  _160
REMARK   72  A    between atoms: _160  and  _161
REMARK   73  A    between atoms: _160  and  _163
REMARK   74  A    between atoms: _166  and  _168
REMARK   75  A    between atoms: _168  and  _169
REMARK   76  A    between atoms: _168  and  _171
REMARK   77  A    between atoms: _171  and  _172
REMARK   78  A    between atoms: _172  and  _173
REMARK   79  A    between atoms: _178  and  _180
REMARK   80  A    between atoms: _180  and  _181
REMARK   81  A    between atoms: _180  and  _183
REMARK   82  A    between atoms: _183  and  _184
REMARK   83  A    between atoms: _184  and  _185
REMARK   84  A    between atoms: _188  and  _190
REMARK   85  A    between atoms: _190  and  _191
REMARK   86  A    between atoms: _190  and  _193
REMARK   87  A    between atoms: _193  and  _194
REMARK   88  A    between atoms: _194  and  _195
REMARK   89  A    between atoms: _198  and  _200
REMARK   90  A    between atoms: _200  and  _201
REMARK   91  A    between atoms: _204  and  _206
REMARK   92  A    between atoms: _206  and  _207
REMARK   93  A    between atoms: _209  and  _211
REMARK   94  A    between atoms: _211  and  _212
REMARK   95  A    between atoms: _212  and  _213
REMARK   96  A    between atoms: _212  and  _214
REMARK   97  A    between atoms: _214  and  _216
REMARK   98  A    between atoms: _216  and  _217
REMARK   99  A    between atoms: _216  and  _219
REMARK  100  A    between atoms: _219  and  _220
REMARK  101  A    between atoms: _223  and  _225
REMARK  102  A    between atoms: _225  and  _226
REMARK  103  A    between atoms: _225  and  _228
REMARK  104  A    between atoms: _228  and  _229
REMARK  105  A    between atoms: _232  and  _234
REMARK  106  A    between atoms: _234  and  _235
REMARK  107  A    between atoms: _234  and  _237
REMARK  108  A    between atoms: _237  and  _238
REMARK  109  A    between atoms: _238  and  _239
REMARK  110  A    between atoms: _244  and  _246
REMARK  111  A    between atoms: _246  and  _247
REMARK  112  A    between atoms: _246  and  _249
REMARK  113  A    between atoms: _249  and  _250
REMARK  114  A    between atoms: _250  and  _251
REMARK  115  A    between atoms: _256  and  _258
REMARK  116  A    between atoms: _258  and  _259
REMARK  117  A    between atoms: _258  and  _261
REMARK  118  A    between atoms: _261  and  _262
REMARK  119  A    between atoms: _265  and  _267
REMARK  120  A    between atoms: _267  and  _268
REMARK  121  A    between atoms: _267  and  _270
REMARK  122  A    between atoms: _270  and  _271
REMARK  123  A    between atoms: _275  and  _276
REMARK  124  A    between atoms: _281  and  _283
REMARK  125  A    between atoms: _283  and  _284
REMARK  126  A    between atoms: _286  and  _288
REMARK  127  A    between atoms: _288  and  _289
REMARK  128  A    between atoms: _288  and  _291
REMARK  129  A    between atoms: _291  and  _292
REMARK  130  A    between atoms: _297  and  _299
REMARK  131  A    between atoms: _299  and  _300
REMARK  132  A    between atoms: _299  and  _302
REMARK  133  A    between atoms: _302  and  _303
REMARK  134  A    between atoms: _303  and  _304
REMARK  135  A    between atoms: _307  and  _309
REMARK  136  A    between atoms: _309  and  _310
REMARK  137  A    between atoms: _309  and  _312
REMARK  138  A    between atoms: _312  and  _313
REMARK  139  A    between atoms: _319  and  _321
REMARK  140  A    between atoms: _321  and  _322
REMARK  141  A    between atoms: _321  and  _324
REMARK  142  A    between atoms: _324  and  _325
REMARK  143  A    between atoms: _325  and  _326
REMARK  144  A    between atoms: _326  and  _327
REMARK  145  A    between atoms: _336  and  _338
REMARK  146  A    between atoms: _338  and  _339
REMARK  147  A    between atoms: _338  and  _341
REMARK  148  A    between atoms: _344  and  _346
REMARK  149  A    between atoms: _346  and  _347
REMARK  150  A    between atoms: _346  and  _349
REMARK  151  A    between atoms: _349  and  _350
REMARK  152  A    between atoms: _353  and  _355
REMARK  153  A    between atoms: _355  and  _356
REMARK  154  A    between atoms: _355  and  _358
REMARK  155  A    between atoms: _358  and  _359
REMARK  156  A    between atoms: _362  and  _364
REMARK  157  A    between atoms: _364  and  _365
REMARK  158  A    between atoms: _364  and  _367
REMARK  159  A    between atoms: _367  and  _368
REMARK  160  A    between atoms: _368  and  _369
REMARK  161  A    between atoms: _371  and  _373
REMARK  162  A    between atoms: _373  and  _374
REMARK  163  A    between atoms: _373  and  _376
REMARK  164  A    between atoms: _376  and  _377
REMARK  165  A    between atoms: _377  and  _378
REMARK  166  A    between atoms: _383  and  _385
REMARK  167  A    between atoms: _385  and  _386
REMARK  168  A    between atoms: _385  and  _388
REMARK  169  A    between atoms: _388  and  _389
REMARK  170  A    between atoms: _392  and  _394
REMARK  171  A    between atoms: _394  and  _395
REMARK  172  A    between atoms: _394  and  _397
REMARK  173  A    between atoms: _397  and  _398
REMARK  174  A    between atoms: _403  and  _405
REMARK  175  A    between atoms: _405  and  _406
REMARK  176  A    between atoms: _405  and  _408
REMARK  177  A    between atoms: _408  and  _409
REMARK  178  A    between atoms: _409  and  _410
REMARK  179  A    between atoms: _410  and  _411
REMARK  180  A    between atoms: _411  and  _412
REMARK  181  A    between atoms: _416  and  _418
REMARK  182  A    between atoms: _418  and  _419
REMARK  183  A    between atoms: _418  and  _421
REMARK  184  A    between atoms: _421  and  _422
REMARK  185  A    between atoms: _425  and  _427
REMARK  186  A    between atoms: _427  and  _428
REMARK  187  A    between atoms: _427  and  _430
REMARK  188  A    between atoms: _430  and  _431
REMARK  189  A    between atoms: _434  and  _436
REMARK  190  A    between atoms: _436  and  _437
REMARK  191  A    between atoms: _436  and  _439
REMARK  192  A    between atoms: _439  and  _440
REMARK  193  A    between atoms: _440  and  _441
REMARK  194  A    between atoms: _441  and  _442
REMARK  195  A    between atoms: _451  and  _453
REMARK  196  A    between atoms: _453  and  _454
REMARK  197  A    between atoms: _453  and  _456
REMARK  198  A    between atoms: _456  and  _457
REMARK  199  A    between atoms: _460  and  _462
REMARK  200  A    between atoms: _462  and  _463
REMARK  201  A    between atoms: _462  and  _465
REMARK  202  A    between atoms: _465  and  _466
REMARK  203  A    between atoms: _469  and  _471
REMARK  204  A    between atoms: _471  and  _472
REMARK  205  A    between atoms: _471  and  _474
REMARK  206  A    between atoms: _474  and  _475
REMARK  207  A    between atoms: _477  and  _479
REMARK  208  A    between atoms: _479  and  _480
REMARK  209  A    between atoms: _483  and  _485
REMARK  210  A    between atoms: _485  and  _486
REMARK  211  A    between atoms: _485  and  _488
REMARK  212  A    between atoms: _488  and  _489
REMARK  213  A    between atoms: _494  and  _496
REMARK  214  A    between atoms: _496  and  _497
REMARK  215  A    between atoms: _496  and  _499
REMARK  216  A    between atoms: _499  and  _500
REMARK  217  A    between atoms: _503  and  _505
REMARK  218  A    between atoms: _505  and  _506
REMARK  219  A    between atoms: _508  and  _510
REMARK  220  A    between atoms: _510  and  _511
REMARK  221  A    between atoms: _510  and  _513
REMARK  222  A    between atoms: _513  and  _514
REMARK  223  A    between atoms: _514  and  _515
REMARK  224  A    between atoms: _518  and  _520
REMARK  225  A    between atoms: _520  and  _521
REMARK  226  A    between atoms: _520  and  _523
REMARK  227  A    between atoms: _523  and  _524
REMARK  228  A    between atoms: _527  and  _529
REMARK  229  A    between atoms: _529  and  _530
REMARK  230  A    between atoms: _529  and  _532
REMARK  231  A    between atoms: _532  and  _533
REMARK  232  A    between atoms: _533  and  _534
REMARK  233  A    between atoms: _534  and  _535
REMARK                            x       y       z     vdW  Elec       q    Type
REMARK                         _______ _______ _______ _____ _____    ______ ____
ROOT
ATOM      1  O   HOH     1     -13.658  16.837  21.147  0.00  0.00    +0.000 OA
ENDROOT
TORSDOF 0
REMARK  Name = ../refined-set-2016/4ncn/4ncn_pocket.pdb
REMARK  233 active torsions:
REMARK  status: ('A' for Active; 'I' for Inactive)
REMARK    1  A    between atoms: _1  and  _3
REMARK    2  A    between atoms: _3  and  _4
REMARK    3  A    between atoms: _3  and  _6
REMARK    4  A    between atoms: _6  and  _7
REMARK    5  A    between atoms: _10  and  _12
REMARK    6  A    between atoms: _12  and  _13
REMARK    7  A    between atoms: _12  and  _15
REMARK    8  A    between atoms: _15  and  _16
REMARK    9  A    between atoms: _19  and  _21
REMARK   10  A    between atoms: _21  and  _22
REMARK   11  A    between atoms: _24  and  _26
REMARK   12  A    between atoms: _26  and  _27
REMARK   13  A    between atoms: _26  and  _29
REMARK   14  A    between atoms: _29  and  _30
REMARK   15  A    between atoms: _35  and  _37
REMARK   16  A    between atoms: _37  and  _38
REMARK   17  A    between atoms: _37  and  _40
REMARK   18  A    between atoms: _43  and  _45
REMARK   19  A    between atoms: _45  and  _46
REMARK   20  A    between atoms: _45  and  _48
REMARK   21  A    between atoms: _48  and  _49
REMARK   22  A    between atoms: _52  and  _54
REMARK   23  A    between atoms: _54  and  _55
REMARK   24  A    between atoms: _54  and  _57
REMARK   25  A    between atoms: _57  and  _58
REMARK   26  A    between atoms: _61  and  _63
REMARK   27  A    between atoms: _63  and  _64
REMARK   28  A    between atoms: _66  and  _68
REMARK   29  A    between atoms: _68  and  _69
REMARK   30  A    between atoms: _68  and  _71
REMARK   31  A    between atoms: _71  and  _72
REMARK   32  A    between atoms: _72  and  _73
REMARK   33  A    between atoms: _73  and  _74
REMARK   34  A    between atoms: _74  and  _75
REMARK   35  A    between atoms: _79  and  _81
REMARK   36  A    between atoms: _81  and  _82
REMARK   37  A    between atoms: _81  and  _84
REMARK   38  A    between atoms: _84  and  _85
REMARK   39  A    between atoms: _88  and  _90
REMARK   40  A    between atoms: _90  and  _91
REMARK   41  A    between atoms: _90  and  _93
REMARK   42  A    between atoms: _93  and  _94
REMARK   43  A    between atoms: _94  and  _95
REMARK   44  A    between atoms: _95  and  _96
REMARK   45  A    between atoms: _96  and  _97
REMARK   46  A    between atoms: _101  and  _103
REMARK   47  A    between atoms: _103  and  _104
REMARK   48  A    between atoms: _103  and  _106
REMARK   49  A    between atoms: _106  and  _107
REMARK   50  A    between atoms: _110  and  _112
REMARK   51  A    between atoms: _112  and  _113
REMARK   52  A    between atoms: _112  and  _115
REMARK   53  A    between atoms: _115  and  _116
REMARK   54  A    between atoms: _119  and  _121
REMARK   55  A    between atoms: _121  and  _122
REMARK   56  A    between atoms: _121  and  _124
REMARK   57  A    between atoms: _124  and  _125
REMARK   58  A    between atoms: _128  and  _130
REMARK   59  A    between atoms: _130  and  _131
REMARK   60  A    between atoms: _130  and  _133
REMARK   61  A    between atoms: _133  and  _134
REMARK   62  A    between atoms: _134  and  _135
REMARK   63  A    between atoms: _135  and  _136
REMARK   64  A    between atoms: _136  and  _137
REMARK   65  A    between atoms: _141  and  _143
REMARK   66  A    between atoms: _143  and  _144
REMARK   67  A    between atoms: _143  and  _146
REMARK   68  A    between atoms: _146  and  _147
REMARK   69  A    between atoms: _147  and  _148
REMARK   70  A    between atoms: _148  and  _149
REMARK   71  A    between atoms: _158  and  _160
REMARK   72  A    between atoms: _160  and  _161
REMARK   73  A    between atoms: _160  and  _163
REMARK   74  A    between atoms: _166  and  _168
REMARK   75  A    between atoms: _168  and  _169
REMARK   76  A    between atoms: _168  and  _171
REMARK   77  A    between atoms: _171  and  _172
REMARK   78  A    between atoms: _172  and  _173
REMARK   79  A    between atoms: _178  and  _180
REMARK   80  A    between atoms: _180  and  _181
REMARK   81  A    between atoms: _180  and  _183
REMARK   82  A    between atoms: _183  and  _184
REMARK   83  A    between atoms: _184  and  _185
REMARK   84  A    between atoms: _188  and  _190
REMARK   85  A    between atoms: _190  and  _191
REMARK   86  A    between atoms: _190  and  _193
REMARK   87  A    between atoms: _193  and  _194
REMARK   88  A    between atoms: _194  and  _195
REMARK   89  A    between atoms: _198  and  _200
REMARK   90  A    between atoms: _200  and  _201
REMARK   91  A    between atoms: _204  and  _206
REMARK   92  A    between atoms: _206  and  _207
REMARK   93  A    between atoms: _209  and  _211
REMARK   94  A    between atoms: _211  and  _212
REMARK   95  A    between atoms: _212  and  _213
REMARK   96  A    between atoms: _212  and  _214
REMARK   97  A    between atoms: _214  and  _216
REMARK   98  A    between atoms: _216  and  _217
REMARK   99  A    between atoms: _216  and  _219
REMARK  100  A    between atoms: _219  and  _220
REMARK  101  A    between atoms: _223  and  _225
REMARK  102  A    between atoms: _225  and  _226
REMARK  103  A    between atoms: _225  and  _228
REMARK  104  A    between atoms: _228  and  _229
REMARK  105  A    between atoms: _232  and  _234
REMARK  106  A    between atoms: _234  and  _235
REMARK  107  A    between atoms: _234  and  _237
REMARK  108  A    between atoms: _237  and  _238
REMARK  109  A    between atoms: _238  and  _239
REMARK  110  A    between atoms: _244  and  _246
REMARK  111  A    between atoms: _246  and  _247
REMARK  112  A    between atoms: _246  and  _249
REMARK  113  A    between atoms: _249  and  _250
REMARK  114  A    between atoms: _250  and  _251
REMARK  115  A    between atoms: _256  and  _258
REMARK  116  A    between atoms: _258  and  _259
REMARK  117  A    between atoms: _258  and  _261
REMARK  118  A    between atoms: _261  and  _262
REMARK  119  A    between atoms: _265  and  _267
REMARK  120  A    between atoms: _267  and  _268
REMARK  121  A    between atoms: _267  and  _270
REMARK  122  A    between atoms: _270  and  _271
REMARK  123  A    between atoms: _275  and  _276
REMARK  124  A    between atoms: _281  and  _283
REMARK  125  A    between atoms: _283  and  _284
REMARK  126  A    between atoms: _286  and  _288
REMARK  127  A    between atoms: _288  and  _289
REMARK  128  A    between atoms: _288  and  _291
REMARK  129  A    between atoms: _291  and  _292
REMARK  130  A    between atoms: _297  and  _299
REMARK  131  A    between atoms: _299  and  _300
REMARK  132  A    between atoms: _299  and  _302
REMARK  133  A    between atoms: _302  and  _303
REMARK  134  A    between atoms: _303  and  _304
REMARK  135  A    between atoms: _307  and  _309
REMARK  136  A    between atoms: _309  and  _310
REMARK  137  A    between atoms: _309  and  _312
REMARK  138  A    between atoms: _312  and  _313
REMARK  139  A    between atoms: _319  and  _321
REMARK  140  A    between atoms: _321  and  _322
REMARK  141  A    between atoms: _321  and  _324
REMARK  142  A    between atoms: _324  and  _325
REMARK  143  A    between atoms: _325  and  _326
REMARK  144  A    between atoms: _326  and  _327
REMARK  145  A    between atoms: _336  and  _338
REMARK  146  A    between atoms: _338  and  _339
REMARK  147  A    between atoms: _338  and  _341
REMARK  148  A    between atoms: _344  and  _346
REMARK  149  A    between atoms: _346  and  _347
REMARK  150  A    between atoms: _346  and  _349
REMARK  151  A    between atoms: _349  and  _350
REMARK  152  A    between atoms: _353  and  _355
REMARK  153  A    between atoms: _355  and  _356
REMARK  154  A    between atoms: _355  and  _358
REMARK  155  A    between atoms: _358  and  _359
REMARK  156  A    between atoms: _362  and  _364
REMARK  157  A    between atoms: _364  and  _365
REMARK  158  A    between atoms: _364  and  _367
REMARK  159  A    between atoms: _367  and  _368
REMARK  160  A    between atoms: _368  and  _369
REMARK  161  A    between atoms: _371  and  _373
REMARK  162  A    between atoms: _373  and  _374
REMARK  163  A    between atoms: _373  and  _376
REMARK  164  A    between atoms: _376  and  _377
REMARK  165  A    between atoms: _377  and  _378
REMARK  166  A    between atoms: _383  and  _385
REMARK  167  A    between atoms: _385  and  _386
REMARK  168  A    between atoms: _385  and  _388
REMARK  169  A    between atoms: _388  and  _389
REMARK  170  A    between atoms: _392  and  _394
REMARK  171  A    between atoms: _394  and  _395
REMARK  172  A    between atoms: _394  and  _397
REMARK  173  A    between atoms: _397  and  _398
REMARK  174  A    between atoms: _403  and  _405
REMARK  175  A    between atoms: _405  and  _406
REMARK  176  A    between atoms: _405  and  _408
REMARK  177  A    between atoms: _408  and  _409
REMARK  178  A    between atoms: _409  and  _410
REMARK  179  A    between atoms: _410  and  _411
REMARK  180  A    between atoms: _411  and  _412
REMARK  181  A    between atoms: _416  and  _418
REMARK  182  A    between atoms: _418  and  _419
REMARK  183  A    between atoms: _418  and  _421
REMARK  184  A    between atoms: _421  and  _422
REMARK  185  A    between atoms: _425  and  _427
REMARK  186  A    between atoms: _427  and  _428
REMARK  187  A    between atoms: _427  and  _430
REMARK  188  A    between atoms: _430  and  _431
REMARK  189  A    between atoms: _434  and  _436
REMARK  190  A    between atoms: _436  and  _437
REMARK  191  A    between atoms: _436  and  _439
REMARK  192  A    between atoms: _439  and  _440
REMARK  193  A    between atoms: _440  and  _441
REMARK  194  A    between atoms: _441  and  _442
REMARK  195  A    between atoms: _451  and  _453
REMARK  196  A    between atoms: _453  and  _454
REMARK  197  A    between atoms: _453  and  _456
REMARK  198  A    between atoms: _456  and  _457
REMARK  199  A    between atoms: _460  and  _462
REMARK  200  A    between atoms: _462  and  _463
REMARK  201  A    between atoms: _462  and  _465
REMARK  202  A    between atoms: _465  and  _466
REMARK  203  A    between atoms: _469  and  _471
REMARK  204  A    between atoms: _471  and  _472
REMARK  205  A    between atoms: _471  and  _474
REMARK  206  A    between atoms: _474  and  _475
REMARK  207  A    between atoms: _477  and  _479
REMARK  208  A    between atoms: _479  and  _480
REMARK  209  A    between atoms: _483  and  _485
REMARK  210  A    between atoms: _485  and  _486
REMARK  211  A    between atoms: _485  and  _488
REMARK  212  A    between atoms: _488  and  _489
REMARK  213  A    between atoms: _494  and  _496
REMARK  214  A    between atoms: _496  and  _497
REMARK  215  A    between atoms: _496  and  _499
REMARK  216  A    between atoms: _499  and  _500
REMARK  217  A    between atoms: _503  and  _505
REMARK  218  A    between atoms: _505  and  _506
REMARK  219  A    between atoms: _508  and  _510
REMARK  220  A    between atoms: _510  and  _511
REMARK  221  A    between atoms: _510  and  _513
REMARK  222  A    between atoms: _513  and  _514
REMARK  223  A    between atoms: _514  and  _515
REMARK  224  A    between atoms: _518  and  _520
REMARK  225  A    between atoms: _520  and  _521
REMARK  226  A    between atoms: _520  and  _523
REMARK  227  A    between atoms: _523  and  _524
REMARK  228  A    between atoms: _527  and  _529
REMARK  229  A    between atoms: _529  and  _530
REMARK  230  A    between atoms: _529  and  _532
REMARK  231  A    between atoms: _532  and  _533
REMARK  232  A    between atoms: _533  and  _534
REMARK  233  A    between atoms: _534  and  _535
REMARK                            x       y       z     vdW  Elec       q    Type
REMARK                         _______ _______ _______ _____ _____    ______ ____
ROOT
ATOM      1  O   HOH     1     -16.544  10.613  17.729  0.00  0.00    +0.000 OA
ENDROOT
TORSDOF 0
REMARK  Name = ../refined-set-2016/4ncn/4ncn_pocket.pdb
REMARK  233 active torsions:
REMARK  status: ('A' for Active; 'I' for Inactive)
REMARK    1  A    between atoms: _1  and  _3
REMARK    2  A    between atoms: _3  and  _4
REMARK    3  A    between atoms: _3  and  _6
REMARK    4  A    between atoms: _6  and  _7
REMARK    5  A    between atoms: _10  and  _12
REMARK    6  A    between atoms: _12  and  _13
REMARK    7  A    between atoms: _12  and  _15
REMARK    8  A    between atoms: _15  and  _16
REMARK    9  A    between atoms: _19  and  _21
REMARK   10  A    between atoms: _21  and  _22
REMARK   11  A    between atoms: _24  and  _26
REMARK   12  A    between atoms: _26  and  _27
REMARK   13  A    between atoms: _26  and  _29
REMARK   14  A    between atoms: _29  and  _30
REMARK   15  A    between atoms: _35  and  _37
REMARK   16  A    between atoms: _37  and  _38
REMARK   17  A    between atoms: _37  and  _40
REMARK   18  A    between atoms: _43  and  _45
REMARK   19  A    between atoms: _45  and  _46
REMARK   20  A    between atoms: _45  and  _48
REMARK   21  A    between atoms: _48  and  _49
REMARK   22  A    between atoms: _52  and  _54
REMARK   23  A    between atoms: _54  and  _55
REMARK   24  A    between atoms: _54  and  _57
REMARK   25  A    between atoms: _57  and  _58
REMARK   26  A    between atoms: _61  and  _63
REMARK   27  A    between atoms: _63  and  _64
REMARK   28  A    between atoms: _66  and  _68
REMARK   29  A    between atoms: _68  and  _69
REMARK   30  A    between atoms: _68  and  _71
REMARK   31  A    between atoms: _71  and  _72
REMARK   32  A    between atoms: _72  and  _73
REMARK   33  A    between atoms: _73  and  _74
REMARK   34  A    between atoms: _74  and  _75
REMARK   35  A    between atoms: _79  and  _81
REMARK   36  A    between atoms: _81  and  _82
REMARK   37  A    between atoms: _81  and  _84
REMARK   38  A    between atoms: _84  and  _85
REMARK   39  A    between atoms: _88  and  _90
REMARK   40  A    between atoms: _90  and  _91
REMARK   41  A    between atoms: _90  and  _93
REMARK   42  A    between atoms: _93  and  _94
REMARK   43  A    between atoms: _94  and  _95
REMARK   44  A    between atoms: _95  and  _96
REMARK   45  A    between atoms: _96  and  _97
REMARK   46  A    between atoms: _101  and  _103
REMARK   47  A    between atoms: _103  and  _104
REMARK   48  A    between atoms: _103  and  _106
REMARK   49  A    between atoms: _106  and  _107
REMARK   50  A    between atoms: _110  and  _112
REMARK   51  A    between atoms: _112  and  _113
REMARK   52  A    between atoms: _112  and  _115
REMARK   53  A    between atoms: _115  and  _116
REMARK   54  A    between atoms: _119  and  _121
REMARK   55  A    between atoms: _121  and  _122
REMARK   56  A    between atoms: _121  and  _124
REMARK   57  A    between atoms: _124  and  _125
REMARK   58  A    between atoms: _128  and  _130
REMARK   59  A    between atoms: _130  and  _131
REMARK   60  A    between atoms: _130  and  _133
REMARK   61  A    between atoms: _133  and  _134
REMARK   62  A    between atoms: _134  and  _135
REMARK   63  A    between atoms: _135  and  _136
REMARK   64  A    between atoms: _136  and  _137
REMARK   65  A    between atoms: _141  and  _143
REMARK   66  A    between atoms: _143  and  _144
REMARK   67  A    between atoms: _143  and  _146
REMARK   68  A    between atoms: _146  and  _147
REMARK   69  A    between atoms: _147  and  _148
REMARK   70  A    between atoms: _148  and  _149
REMARK   71  A    between atoms: _158  and  _160
REMARK   72  A    between atoms: _160  and  _161
REMARK   73  A    between atoms: _160  and  _163
REMARK   74  A    between atoms: _166  and  _168
REMARK   75  A    between atoms: _168  and  _169
REMARK   76  A    between atoms: _168  and  _171
REMARK   77  A    between atoms: _171  and  _172
REMARK   78  A    between atoms: _172  and  _173
REMARK   79  A    between atoms: _178  and  _180
REMARK   80  A    between atoms: _180  and  _181
REMARK   81  A    between atoms: _180  and  _183
REMARK   82  A    between atoms: _183  and  _184
REMARK   83  A    between atoms: _184  and  _185
REMARK   84  A    between atoms: _188  and  _190
REMARK   85  A    between atoms: _190  and  _191
REMARK   86  A    between atoms: _190  and  _193
REMARK   87  A    between atoms: _193  and  _194
REMARK   88  A    between atoms: _194  and  _195
REMARK   89  A    between atoms: _198  and  _200
REMARK   90  A    between atoms: _200  and  _201
REMARK   91  A    between atoms: _204  and  _206
REMARK   92  A    between atoms: _206  and  _207
REMARK   93  A    between atoms: _209  and  _211
REMARK   94  A    between atoms: _211  and  _212
REMARK   95  A    between atoms: _212  and  _213
REMARK   96  A    between atoms: _212  and  _214
REMARK   97  A    between atoms: _214  and  _216
REMARK   98  A    between atoms: _216  and  _217
REMARK   99  A    between atoms: _216  and  _219
REMARK  100  A    between atoms: _219  and  _220
REMARK  101  A    between atoms: _223  and  _225
REMARK  102  A    between atoms: _225  and  _226
REMARK  103  A    between atoms: _225  and  _228
REMARK  104  A    between atoms: _228  and  _229
REMARK  105  A    between atoms: _232  and  _234
REMARK  106  A    between atoms: _234  and  _235
REMARK  107  A    between atoms: _234  and  _237
REMARK  108  A    between atoms: _237  and  _238
REMARK  109  A    between atoms: _238  and  _239
REMARK  110  A    between atoms: _244  and  _246
REMARK  111  A    between atoms: _246  and  _247
REMARK  112  A    between atoms: _246  and  _249
REMARK  113  A    between atoms: _249  and  _250
REMARK  114  A    between atoms: _250  and  _251
REMARK  115  A    between atoms: _256  and  _258
REMARK  116  A    between atoms: _258  and  _259
REMARK  117  A    between atoms: _258  and  _261
REMARK  118  A    between atoms: _261  and  _262
REMARK  119  A    between atoms: _265  and  _267
REMARK  120  A    between atoms: _267  and  _268
REMARK  121  A    between atoms: _267  and  _270
REMARK  122  A    between atoms: _270  and  _271
REMARK  123  A    between atoms: _275  and  _276
REMARK  124  A    between atoms: _281  and  _283
REMARK  125  A    between atoms: _283  and  _284
REMARK  126  A    between atoms: _286  and  _288
REMARK  127  A    between atoms: _288  and  _289
REMARK  128  A    between atoms: _288  and  _291
REMARK  129  A    between atoms: _291  and  _292
REMARK  130  A    between atoms: _297  and  _299
REMARK  131  A    between atoms: _299  and  _300
REMARK  132  A    between atoms: _299  and  _302
REMARK  133  A    between atoms: _302  and  _303
REMARK  134  A    between atoms: _303  and  _304
REMARK  135  A    between atoms: _307  and  _309
REMARK  136  A    between atoms: _309  and  _310
REMARK  137  A    between atoms: _309  and  _312
REMARK  138  A    between atoms: _312  and  _313
REMARK  139  A    between atoms: _319  and  _321
REMARK  140  A    between atoms: _321  and  _322
REMARK  141  A    between atoms: _321  and  _324
REMARK  142  A    between atoms: _324  and  _325
REMARK  143  A    between atoms: _325  and  _326
REMARK  144  A    between atoms: _326  and  _327
REMARK  145  A    between atoms: _336  and  _338
REMARK  146  A    between atoms: _338  and  _339
REMARK  147  A    between atoms: _338  and  _341
REMARK  148  A    between atoms: _344  and  _346
REMARK  149  A    between atoms: _346  and  _347
REMARK  150  A    between atoms: _346  and  _349
REMARK  151  A    between atoms: _349  and  _350
REMARK  152  A    between atoms: _353  and  _355
REMARK  153  A    between atoms: _355  and  _356
REMARK  154  A    between atoms: _355  and  _358
REMARK  155  A    between atoms: _358  and  _359
REMARK  156  A    between atoms: _362  and  _364
REMARK  157  A    between atoms: _364  and  _365
REMARK  158  A    between atoms: _364  and  _367
REMARK  159  A    between atoms: _367  and  _368
REMARK  160  A    between atoms: _368  and  _369
REMARK  161  A    between atoms: _371  and  _373
REMARK  162  A    between atoms: _373  and  _374
REMARK  163  A    between atoms: _373  and  _376
REMARK  164  A    between atoms: _376  and  _377
REMARK  165  A    between atoms: _377  and  _378
REMARK  166  A    between atoms: _383  and  _385
REMARK  167  A    between atoms: _385  and  _386
REMARK  168  A    between atoms: _385  and  _388
REMARK  169  A    between atoms: _388  and  _389
REMARK  170  A    between atoms: _392  and  _394
REMARK  171  A    between atoms: _394  and  _395
REMARK  172  A    between atoms: _394  and  _397
REMARK  173  A    between atoms: _397  and  _398
REMARK  174  A    between atoms: _403  and  _405
REMARK  175  A    between atoms: _405  and  _406
REMARK  176  A    between atoms: _405  and  _408
REMARK  177  A    between atoms: _408  and  _409
REMARK  178  A    between atoms: _409  and  _410
REMARK  179  A    between atoms: _410  and  _411
REMARK  180  A    between atoms: _411  and  _412
REMARK  181  A    between atoms: _416  and  _418
REMARK  182  A    between atoms: _418  and  _419
REMARK  183  A    between atoms: _418  and  _421
REMARK  184  A    between atoms: _421  and  _422
REMARK  185  A    between atoms: _425  and  _427
REMARK  186  A    between atoms: _427  and  _428
REMARK  187  A    between atoms: _427  and  _430
REMARK  188  A    between atoms: _430  and  _431
REMARK  189  A    between atoms: _434  and  _436
REMARK  190  A    between atoms: _436  and  _437
REMARK  191  A    between atoms: _436  and  _439
REMARK  192  A    between atoms: _439  and  _440
REMARK  193  A    between atoms: _440  and  _441
REMARK  194  A    between atoms: _441  and  _442
REMARK  195  A    between atoms: _451  and  _453
REMARK  196  A    between atoms: _453  and  _454
REMARK  197  A    between atoms: _453  and  _456
REMARK  198  A    between atoms: _456  and  _457
REMARK  199  A    between atoms: _460  and  _462
REMARK  200  A    between atoms: _462  and  _463
REMARK  201  A    between atoms: _462  and  _465
REMARK  202  A    between atoms: _465  and  _466
REMARK  203  A    between atoms: _469  and  _471
REMARK  204  A    between atoms: _471  and  _472
REMARK  205  A    between atoms: _471  and  _474
REMARK  206  A    between atoms: _474  and  _475
REMARK  207  A    between atoms: _477  and  _479
REMARK  208  A    between atoms: _479  and  _480
REMARK  209  A    between atoms: _483  and  _485
REMARK  210  A    between atoms: _485  and  _486
REMARK  211  A    between atoms: _485  and  _488
REMARK  212  A    between atoms: _488  and  _489
REMARK  213  A    between atoms: _494  and  _496
REMARK  214  A    between atoms: _496  and  _497
REMARK  215  A    between atoms: _496  and  _499
REMARK  216  A    between atoms: _499  and  _500
REMARK  217  A    between atoms: _503  and  _505
REMARK  218  A    between atoms: _505  and  _506
REMARK  219  A    between atoms: _508  and  _510
REMARK  220  A    between atoms: _510  and  _511
REMARK  221  A    between atoms: _510  and  _513
REMARK  222  A    between atoms: _513  and  _514
REMARK  223  A    between atoms: _514  and  _515
REMARK  224  A    between atoms: _518  and  _520
REMARK  225  A    between atoms: _520  and  _521
REMARK  226  A    between atoms: _520  and  _523
REMARK  227  A    between atoms: _523  and  _524
REMARK  228  A    between atoms: _527  and  _529
REMARK  229  A    between atoms: _529  and  _530
REMARK  230  A    between atoms: _529  and  _532
REMARK  231  A    between atoms: _532  and  _533
REMARK  232  A    between atoms: _533  and  _534
REMARK  233  A    between atoms: _534  and  _535
REMARK                            x       y       z     vdW  Elec       q    Type
REMARK                         _______ _______ _______ _____ _____    ______ ____
ROOT
ATOM      1  O   HOH     1      -9.028  11.045  18.960  0.00  0.00    +0.000 OA
ENDROOT
TORSDOF 0
REMARK  Name = ../refined-set-2016/4ncn/4ncn_pocket.pdb
REMARK  233 active torsions:
REMARK  status: ('A' for Active; 'I' for Inactive)
REMARK    1  A    between atoms: _1  and  _3
REMARK    2  A    between atoms: _3  and  _4
REMARK    3  A    between atoms: _3  and  _6
REMARK    4  A    between atoms: _6  and  _7
REMARK    5  A    between atoms: _10  and  _12
REMARK    6  A    between atoms: _12  and  _13
REMARK    7  A    between atoms: _12  and  _15
REMARK    8  A    between atoms: _15  and  _16
REMARK    9  A    between atoms: _19  and  _21
REMARK   10  A    between atoms: _21  and  _22
REMARK   11  A    between atoms: _24  and  _26
REMARK   12  A    between atoms: _26  and  _27
REMARK   13  A    between atoms: _26  and  _29
REMARK   14  A    between atoms: _29  and  _30
REMARK   15  A    between atoms: _35  and  _37
REMARK   16  A    between atoms: _37  and  _38
REMARK   17  A    between atoms: _37  and  _40
REMARK   18  A    between atoms: _43  and  _45
REMARK   19  A    between atoms: _45  and  _46
REMARK   20  A    between atoms: _45  and  _48
REMARK   21  A    between atoms: _48  and  _49
REMARK   22  A    between atoms: _52  and  _54
REMARK   23  A    between atoms: _54  and  _55
REMARK   24  A    between atoms: _54  and  _57
REMARK   25  A    between atoms: _57  and  _58
REMARK   26  A    between atoms: _61  and  _63
REMARK   27  A    between atoms: _63  and  _64
REMARK   28  A    between atoms: _66  and  _68
REMARK   29  A    between atoms: _68  and  _69
REMARK   30  A    between atoms: _68  and  _71
REMARK   31  A    between atoms: _71  and  _72
REMARK   32  A    between atoms: _72  and  _73
REMARK   33  A    between atoms: _73  and  _74
REMARK   34  A    between atoms: _74  and  _75
REMARK   35  A    between atoms: _79  and  _81
REMARK   36  A    between atoms: _81  and  _82
REMARK   37  A    between atoms: _81  and  _84
REMARK   38  A    between atoms: _84  and  _85
REMARK   39  A    between atoms: _88  and  _90
REMARK   40  A    between atoms: _90  and  _91
REMARK   41  A    between atoms: _90  and  _93
REMARK   42  A    between atoms: _93  and  _94
REMARK   43  A    between atoms: _94  and  _95
REMARK   44  A    between atoms: _95  and  _96
REMARK   45  A    between atoms: _96  and  _97
REMARK   46  A    between atoms: _101  and  _103
REMARK   47  A    between atoms: _103  and  _104
REMARK   48  A    between atoms: _103  and  _106
REMARK   49  A    between atoms: _106  and  _107
REMARK   50  A    between atoms: _110  and  _112
REMARK   51  A    between atoms: _112  and  _113
REMARK   52  A    between atoms: _112  and  _115
REMARK   53  A    between atoms: _115  and  _116
REMARK   54  A    between atoms: _119  and  _121
REMARK   55  A    between atoms: _121  and  _122
REMARK   56  A    between atoms: _121  and  _124
REMARK   57  A    between atoms: _124  and  _125
REMARK   58  A    between atoms: _128  and  _130
REMARK   59  A    between atoms: _130  and  _131
REMARK   60  A    between atoms: _130  and  _133
REMARK   61  A    between atoms: _133  and  _134
REMARK   62  A    between atoms: _134  and  _135
REMARK   63  A    between atoms: _135  and  _136
REMARK   64  A    between atoms: _136  and  _137
REMARK   65  A    between atoms: _141  and  _143
REMARK   66  A    between atoms: _143  and  _144
REMARK   67  A    between atoms: _143  and  _146
REMARK   68  A    between atoms: _146  and  _147
REMARK   69  A    between atoms: _147  and  _148
REMARK   70  A    between atoms: _148  and  _149
REMARK   71  A    between atoms: _158  and  _160
REMARK   72  A    between atoms: _160  and  _161
REMARK   73  A    between atoms: _160  and  _163
REMARK   74  A    between atoms: _166  and  _168
REMARK   75  A    between atoms: _168  and  _169
REMARK   76  A    between atoms: _168  and  _171
REMARK   77  A    between atoms: _171  and  _172
REMARK   78  A    between atoms: _172  and  _173
REMARK   79  A    between atoms: _178  and  _180
REMARK   80  A    between atoms: _180  and  _181
REMARK   81  A    between atoms: _180  and  _183
REMARK   82  A    between atoms: _183  and  _184
REMARK   83  A    between atoms: _184  and  _185
REMARK   84  A    between atoms: _188  and  _190
REMARK   85  A    between atoms: _190  and  _191
REMARK   86  A    between atoms: _190  and  _193
REMARK   87  A    between atoms: _193  and  _194
REMARK   88  A    between atoms: _194  and  _195
REMARK   89  A    between atoms: _198  and  _200
REMARK   90  A    between atoms: _200  and  _201
REMARK   91  A    between atoms: _204  and  _206
REMARK   92  A    between atoms: _206  and  _207
REMARK   93  A    between atoms: _209  and  _211
REMARK   94  A    between atoms: _211  and  _212
REMARK   95  A    between atoms: _212  and  _213
REMARK   96  A    between atoms: _212  and  _214
REMARK   97  A    between atoms: _214  and  _216
REMARK   98  A    between atoms: _216  and  _217
REMARK   99  A    between atoms: _216  and  _219
REMARK  100  A    between atoms: _219  and  _220
REMARK  101  A    between atoms: _223  and  _225
REMARK  102  A    between atoms: _225  and  _226
REMARK  103  A    between atoms: _225  and  _228
REMARK  104  A    between atoms: _228  and  _229
REMARK  105  A    between atoms: _232  and  _234
REMARK  106  A    between atoms: _234  and  _235
REMARK  107  A    between atoms: _234  and  _237
REMARK  108  A    between atoms: _237  and  _238
REMARK  109  A    between atoms: _238  and  _239
REMARK  110  A    between atoms: _244  and  _246
REMARK  111  A    between atoms: _246  and  _247
REMARK  112  A    between atoms: _246  and  _249
REMARK  113  A    between atoms: _249  and  _250
REMARK  114  A    between atoms: _250  and  _251
REMARK  115  A    between atoms: _256  and  _258
REMARK  116  A    between atoms: _258  and  _259
REMARK  117  A    between atoms: _258  and  _261
REMARK  118  A    between atoms: _261  and  _262
REMARK  119  A    between atoms: _265  and  _267
REMARK  120  A    between atoms: _267  and  _268
REMARK  121  A    between atoms: _267  and  _270
REMARK  122  A    between atoms: _270  and  _271
REMARK  123  A    between atoms: _275  and  _276
REMARK  124  A    between atoms: _281  and  _283
REMARK  125  A    between atoms: _283  and  _284
REMARK  126  A    between atoms: _286  and  _288
REMARK  127  A    between atoms: _288  and  _289
REMARK  128  A    between atoms: _288  and  _291
REMARK  129  A    between atoms: _291  and  _292
REMARK  130  A    between atoms: _297  and  _299
REMARK  131  A    between atoms: _299  and  _300
REMARK  132  A    between atoms: _299  and  _302
REMARK  133  A    between atoms: _302  and  _303
REMARK  134  A    between atoms: _303  and  _304
REMARK  135  A    between atoms: _307  and  _309
REMARK  136  A    between atoms: _309  and  _310
REMARK  137  A    between atoms: _309  and  _312
REMARK  138  A    between atoms: _312  and  _313
REMARK  139  A    between atoms: _319  and  _321
REMARK  140  A    between atoms: _321  and  _322
REMARK  141  A    between atoms: _321  and  _324
REMARK  142  A    between atoms: _324  and  _325
REMARK  143  A    between atoms: _325  and  _326
REMARK  144  A    between atoms: _326  and  _327
REMARK  145  A    between atoms: _336  and  _338
REMARK  146  A    between atoms: _338  and  _339
REMARK  147  A    between atoms: _338  and  _341
REMARK  148  A    between atoms: _344  and  _346
REMARK  149  A    between atoms: _346  and  _347
REMARK  150  A    between atoms: _346  and  _349
REMARK  151  A    between atoms: _349  and  _350
REMARK  152  A    between atoms: _353  and  _355
REMARK  153  A    between atoms: _355  and  _356
REMARK  154  A    between atoms: _355  and  _358
REMARK  155  A    between atoms: _358  and  _359
REMARK  156  A    between atoms: _362  and  _364
REMARK  157  A    between atoms: _364  and  _365
REMARK  158  A    between atoms: _364  and  _367
REMARK  159  A    between atoms: _367  and  _368
REMARK  160  A    between atoms: _368  and  _369
REMARK  161  A    between atoms: _371  and  _373
REMARK  162  A    between atoms: _373  and  _374
REMARK  163  A    between atoms: _373  and  _376
REMARK  164  A    between atoms: _376  and  _377
REMARK  165  A    between atoms: _377  and  _378
REMARK  166  A    between atoms: _383  and  _385
REMARK  167  A    between atoms: _385  and  _386
REMARK  168  A    between atoms: _385  and  _388
REMARK  169  A    between atoms: _388  and  _389
REMARK  170  A    between atoms: _392  and  _394
REMARK  171  A    between atoms: _394  and  _395
REMARK  172  A    between atoms: _394  and  _397
REMARK  173  A    between atoms: _397  and  _398
REMARK  174  A    between atoms: _403  and  _405
REMARK  175  A    between atoms: _405  and  _406
REMARK  176  A    between atoms: _405  and  _408
REMARK  177  A    between atoms: _408  and  _409
REMARK  178  A    between atoms: _409  and  _410
REMARK  179  A    between atoms: _410  and  _411
REMARK  180  A    between atoms: _411  and  _412
REMARK  181  A    between atoms: _416  and  _418
REMARK  182  A    between atoms: _418  and  _419
REMARK  183  A    between atoms: _418  and  _421
REMARK  184  A    between atoms: _421  and  _422
REMARK  185  A    between atoms: _425  and  _427
REMARK  186  A    between atoms: _427  and  _428
REMARK  187  A    between atoms: _427  and  _430
REMARK  188  A    between atoms: _430  and  _431
REMARK  189  A    between atoms: _434  and  _436
REMARK  190  A    between atoms: _436  and  _437
REMARK  191  A    between atoms: _436  and  _439
REMARK  192  A    between atoms: _439  and  _440
REMARK  193  A    between atoms: _440  and  _441
REMARK  194  A    between atoms: _441  and  _442
REMARK  195  A    between atoms: _451  and  _453
REMARK  196  A    between atoms: _453  and  _454
REMARK  197  A    between atoms: _453  and  _456
REMARK  198  A    between atoms: _456  and  _457
REMARK  199  A    between atoms: _460  and  _462
REMARK  200  A    between atoms: _462  and  _463
REMARK  201  A    between atoms: _462  and  _465
REMARK  202  A    between atoms: _465  and  _466
REMARK  203  A    between atoms: _469  and  _471
REMARK  204  A    between atoms: _471  and  _472
REMARK  205  A    between atoms: _471  and  _474
REMARK  206  A    between atoms: _474  and  _475
REMARK  207  A    between atoms: _477  and  _479
REMARK  208  A    between atoms: _479  and  _480
REMARK  209  A    between atoms: _483  and  _485
REMARK  210  A    between atoms: _485  and  _486
REMARK  211  A    between atoms: _485  and  _488
REMARK  212  A    between atoms: _488  and  _489
REMARK  213  A    between atoms: _494  and  _496
REMARK  214  A    between atoms: _496  and  _497
REMARK  215  A    between atoms: _496  and  _499
REMARK  216  A    between atoms: _499  and  _500
REMARK  217  A    between atoms: _503  and  _505
REMARK  218  A    between atoms: _505  and  _506
REMARK  219  A    between atoms: _508  and  _510
REMARK  220  A    between atoms: _510  and  _511
REMARK  221  A    between atoms: _510  and  _513
REMARK  222  A    between atoms: _513  and  _514
REMARK  223  A    between atoms: _514  and  _515
REMARK  224  A    between atoms: _518  and  _520
REMARK  225  A    between atoms: _520  and  _521
REMARK  226  A    between atoms: _520  and  _523
REMARK  227  A    between atoms: _523  and  _524
REMARK  228  A    between atoms: _527  and  _529
REMARK  229  A    between atoms: _529  and  _530
REMARK  230  A    between atoms: _529  and  _532
REMARK  231  A    between atoms: _532  and  _533
REMARK  232  A    between atoms: _533  and  _534
REMARK  233  A    between atoms: _534  and  _535
REMARK                            x       y       z     vdW  Elec       q    Type
REMARK                         _______ _______ _______ _____ _____    ______ ____
ROOT
ATOM      1  O   HOH     1      -6.007  19.620   4.874  0.00  0.00    +0.000 OA
ENDROOT
TORSDOF 0
REMARK  Name = ../refined-set-2016/4ncn/4ncn_pocket.pdb
REMARK  233 active torsions:
REMARK  status: ('A' for Active; 'I' for Inactive)
REMARK    1  A    between atoms: _1  and  _3
REMARK    2  A    between atoms: _3  and  _4
REMARK    3  A    between atoms: _3  and  _6
REMARK    4  A    between atoms: _6  and  _7
REMARK    5  A    between atoms: _10  and  _12
REMARK    6  A    between atoms: _12  and  _13
REMARK    7  A    between atoms: _12  and  _15
REMARK    8  A    between atoms: _15  and  _16
REMARK    9  A    between atoms: _19  and  _21
REMARK   10  A    between atoms: _21  and  _22
REMARK   11  A    between atoms: _24  and  _26
REMARK   12  A    between atoms: _26  and  _27
REMARK   13  A    between atoms: _26  and  _29
REMARK   14  A    between atoms: _29  and  _30
REMARK   15  A    between atoms: _35  and  _37
REMARK   16  A    between atoms: _37  and  _38
REMARK   17  A    between atoms: _37  and  _40
REMARK   18  A    between atoms: _43  and  _45
REMARK   19  A    between atoms: _45  and  _46
REMARK   20  A    between atoms: _45  and  _48
REMARK   21  A    between atoms: _48  and  _49
REMARK   22  A    between atoms: _52  and  _54
REMARK   23  A    between atoms: _54  and  _55
REMARK   24  A    between atoms: _54  and  _57
REMARK   25  A    between atoms: _57  and  _58
REMARK   26  A    between atoms: _61  and  _63
REMARK   27  A    between atoms: _63  and  _64
REMARK   28  A    between atoms: _66  and  _68
REMARK   29  A    between atoms: _68  and  _69
REMARK   30  A    between atoms: _68  and  _71
REMARK   31  A    between atoms: _71  and  _72
REMARK   32  A    between atoms: _72  and  _73
REMARK   33  A    between atoms: _73  and  _74
REMARK   34  A    between atoms: _74  and  _75
REMARK   35  A    between atoms: _79  and  _81
REMARK   36  A    between atoms: _81  and  _82
REMARK   37  A    between atoms: _81  and  _84
REMARK   38  A    between atoms: _84  and  _85
REMARK   39  A    between atoms: _88  and  _90
REMARK   40  A    between atoms: _90  and  _91
REMARK   41  A    between atoms: _90  and  _93
REMARK   42  A    between atoms: _93  and  _94
REMARK   43  A    between atoms: _94  and  _95
REMARK   44  A    between atoms: _95  and  _96
REMARK   45  A    between atoms: _96  and  _97
REMARK   46  A    between atoms: _101  and  _103
REMARK   47  A    between atoms: _103  and  _104
REMARK   48  A    between atoms: _103  and  _106
REMARK   49  A    between atoms: _106  and  _107
REMARK   50  A    between atoms: _110  and  _112
REMARK   51  A    between atoms: _112  and  _113
REMARK   52  A    between atoms: _112  and  _115
REMARK   53  A    between atoms: _115  and  _116
REMARK   54  A    between atoms: _119  and  _121
REMARK   55  A    between atoms: _121  and  _122
REMARK   56  A    between atoms: _121  and  _124
REMARK   57  A    between atoms: _124  and  _125
REMARK   58  A    between atoms: _128  and  _130
REMARK   59  A    between atoms: _130  and  _131
REMARK   60  A    between atoms: _130  and  _133
REMARK   61  A    between atoms: _133  and  _134
REMARK   62  A    between atoms: _134  and  _135
REMARK   63  A    between atoms: _135  and  _136
REMARK   64  A    between atoms: _136  and  _137
REMARK   65  A    between atoms: _141  and  _143
REMARK   66  A    between atoms: _143  and  _144
REMARK   67  A    between atoms: _143  and  _146
REMARK   68  A    between atoms: _146  and  _147
REMARK   69  A    between atoms: _147  and  _148
REMARK   70  A    between atoms: _148  and  _149
REMARK   71  A    between atoms: _158  and  _160
REMARK   72  A    between atoms: _160  and  _161
REMARK   73  A    between atoms: _160  and  _163
REMARK   74  A    between atoms: _166  and  _168
REMARK   75  A    between atoms: _168  and  _169
REMARK   76  A    between atoms: _168  and  _171
REMARK   77  A    between atoms: _171  and  _172
REMARK   78  A    between atoms: _172  and  _173
REMARK   79  A    between atoms: _178  and  _180
REMARK   80  A    between atoms: _180  and  _181
REMARK   81  A    between atoms: _180  and  _183
REMARK   82  A    between atoms: _183  and  _184
REMARK   83  A    between atoms: _184  and  _185
REMARK   84  A    between atoms: _188  and  _190
REMARK   85  A    between atoms: _190  and  _191
REMARK   86  A    between atoms: _190  and  _193
REMARK   87  A    between atoms: _193  and  _194
REMARK   88  A    between atoms: _194  and  _195
REMARK   89  A    between atoms: _198  and  _200
REMARK   90  A    between atoms: _200  and  _201
REMARK   91  A    between atoms: _204  and  _206
REMARK   92  A    between atoms: _206  and  _207
REMARK   93  A    between atoms: _209  and  _211
REMARK   94  A    between atoms: _211  and  _212
REMARK   95  A    between atoms: _212  and  _213
REMARK   96  A    between atoms: _212  and  _214
REMARK   97  A    between atoms: _214  and  _216
REMARK   98  A    between atoms: _216  and  _217
REMARK   99  A    between atoms: _216  and  _219
REMARK  100  A    between atoms: _219  and  _220
REMARK  101  A    between atoms: _223  and  _225
REMARK  102  A    between atoms: _225  and  _226
REMARK  103  A    between atoms: _225  and  _228
REMARK  104  A    between atoms: _228  and  _229
REMARK  105  A    between atoms: _232  and  _234
REMARK  106  A    between atoms: _234  and  _235
REMARK  107  A    between atoms: _234  and  _237
REMARK  108  A    between atoms: _237  and  _238
REMARK  109  A    between atoms: _238  and  _239
REMARK  110  A    between atoms: _244  and  _246
REMARK  111  A    between atoms: _246  and  _247
REMARK  112  A    between atoms: _246  and  _249
REMARK  113  A    between atoms: _249  and  _250
REMARK  114  A    between atoms: _250  and  _251
REMARK  115  A    between atoms: _256  and  _258
REMARK  116  A    between atoms: _258  and  _259
REMARK  117  A    between atoms: _258  and  _261
REMARK  118  A    between atoms: _261  and  _262
REMARK  119  A    between atoms: _265  and  _267
REMARK  120  A    between atoms: _267  and  _268
REMARK  121  A    between atoms: _267  and  _270
REMARK  122  A    between atoms: _270  and  _271
REMARK  123  A    between atoms: _275  and  _276
REMARK  124  A    between atoms: _281  and  _283
REMARK  125  A    between atoms: _283  and  _284
REMARK  126  A    between atoms: _286  and  _288
REMARK  127  A    between atoms: _288  and  _289
REMARK  128  A    between atoms: _288  and  _291
REMARK  129  A    between atoms: _291  and  _292
REMARK  130  A    between atoms: _297  and  _299
REMARK  131  A    between atoms: _299  and  _300
REMARK  132  A    between atoms: _299  and  _302
REMARK  133  A    between atoms: _302  and  _303
REMARK  134  A    between atoms: _303  and  _304
REMARK  135  A    between atoms: _307  and  _309
REMARK  136  A    between atoms: _309  and  _310
REMARK  137  A    between atoms: _309  and  _312
REMARK  138  A    between atoms: _312  and  _313
REMARK  139  A    between atoms: _319  and  _321
REMARK  140  A    between atoms: _321  and  _322
REMARK  141  A    between atoms: _321  and  _324
REMARK  142  A    between atoms: _324  and  _325
REMARK  143  A    between atoms: _325  and  _326
REMARK  144  A    between atoms: _326  and  _327
REMARK  145  A    between atoms: _336  and  _338
REMARK  146  A    between atoms: _338  and  _339
REMARK  147  A    between atoms: _338  and  _341
REMARK  148  A    between atoms: _344  and  _346
REMARK  149  A    between atoms: _346  and  _347
REMARK  150  A    between atoms: _346  and  _349
REMARK  151  A    between atoms: _349  and  _350
REMARK  152  A    between atoms: _353  and  _355
REMARK  153  A    between atoms: _355  and  _356
REMARK  154  A    between atoms: _355  and  _358
REMARK  155  A    between atoms: _358  and  _359
REMARK  156  A    between atoms: _362  and  _364
REMARK  157  A    between atoms: _364  and  _365
REMARK  158  A    between atoms: _364  and  _367
REMARK  159  A    between atoms: _367  and  _368
REMARK  160  A    between atoms: _368  and  _369
REMARK  161  A    between atoms: _371  and  _373
REMARK  162  A    between atoms: _373  and  _374
REMARK  163  A    between atoms: _373  and  _376
REMARK  164  A    between atoms: _376  and  _377
REMARK  165  A    between atoms: _377  and  _378
REMARK  166  A    between atoms: _383  and  _385
REMARK  167  A    between atoms: _385  and  _386
REMARK  168  A    between atoms: _385  and  _388
REMARK  169  A    between atoms: _388  and  _389
REMARK  170  A    between atoms: _392  and  _394
REMARK  171  A    between atoms: _394  and  _395
REMARK  172  A    between atoms: _394  and  _397
REMARK  173  A    between atoms: _397  and  _398
REMARK  174  A    between atoms: _403  and  _405
REMARK  175  A    between atoms: _405  and  _406
REMARK  176  A    between atoms: _405  and  _408
REMARK  177  A    between atoms: _408  and  _409
REMARK  178  A    between atoms: _409  and  _410
REMARK  179  A    between atoms: _410  and  _411
REMARK  180  A    between atoms: _411  and  _412
REMARK  181  A    between atoms: _416  and  _418
REMARK  182  A    between atoms: _418  and  _419
REMARK  183  A    between atoms: _418  and  _421
REMARK  184  A    between atoms: _421  and  _422
REMARK  185  A    between atoms: _425  and  _427
REMARK  186  A    between atoms: _427  and  _428
REMARK  187  A    between atoms: _427  and  _430
REMARK  188  A    between atoms: _430  and  _431
REMARK  189  A    between atoms: _434  and  _436
REMARK  190  A    between atoms: _436  and  _437
REMARK  191  A    between atoms: _436  and  _439
REMARK  192  A    between atoms: _439  and  _440
REMARK  193  A    between atoms: _440  and  _441
REMARK  194  A    between atoms: _441  and  _442
REMARK  195  A    between atoms: _451  and  _453
REMARK  196  A    between atoms: _453  and  _454
REMARK  197  A    between atoms: _453  and  _456
REMARK  198  A    between atoms: _456  and  _457
REMARK  199  A    between atoms: _460  and  _462
REMARK  200  A    between atoms: _462  and  _463
REMARK  201  A    between atoms: _462  and  _465
REMARK  202  A    between atoms: _465  and  _466
REMARK  203  A    between atoms: _469  and  _471
REMARK  204  A    between atoms: _471  and  _472
REMARK  205  A    between atoms: _471  and  _474
REMARK  206  A    between atoms: _474  and  _475
REMARK  207  A    between atoms: _477  and  _479
REMARK  208  A    between atoms: _479  and  _480
REMARK  209  A    between atoms: _483  and  _485
REMARK  210  A    between atoms: _485  and  _486
REMARK  211  A    between atoms: _485  and  _488
REMARK  212  A    between atoms: _488  and  _489
REMARK  213  A    between atoms: _494  and  _496
REMARK  214  A    between atoms: _496  and  _497
REMARK  215  A    between atoms: _496  and  _499
REMARK  216  A    between atoms: _499  and  _500
REMARK  217  A    between atoms: _503  and  _505
REMARK  218  A    between atoms: _505  and  _506
REMARK  219  A    between atoms: _508  and  _510
REMARK  220  A    between atoms: _510  and  _511
REMARK  221  A    between atoms: _510  and  _513
REMARK  222  A    between atoms: _513  and  _514
REMARK  223  A    between atoms: _514  and  _515
REMARK  224  A    between atoms: _518  and  _520
REMARK  225  A    between atoms: _520  and  _521
REMARK  226  A    between atoms: _520  and  _523
REMARK  227  A    between atoms: _523  and  _524
REMARK  228  A    between atoms: _527  and  _529
REMARK  229  A    between atoms: _529  and  _530
REMARK  230  A    between atoms: _529  and  _532
REMARK  231  A    between atoms: _532  and  _533
REMARK  232  A    between atoms: _533  and  _534
REMARK  233  A    between atoms: _534  and  _535
REMARK                            x       y       z     vdW  Elec       q    Type
REMARK                         _______ _______ _______ _____ _____    ______ ____
ROOT
ATOM      1  O   HOH     1     -16.146  22.568  10.219  0.00  0.00    +0.000 OA
ENDROOT
TORSDOF 0
REMARK  Name = ../refined-set-2016/4ncn/4ncn_pocket.pdb
REMARK  233 active torsions:
REMARK  status: ('A' for Active; 'I' for Inactive)
REMARK    1  A    between atoms: _1  and  _3
REMARK    2  A    between atoms: _3  and  _4
REMARK    3  A    between atoms: _3  and  _6
REMARK    4  A    between atoms: _6  and  _7
REMARK    5  A    between atoms: _10  and  _12
REMARK    6  A    between atoms: _12  and  _13
REMARK    7  A    between atoms: _12  and  _15
REMARK    8  A    between atoms: _15  and  _16
REMARK    9  A    between atoms: _19  and  _21
REMARK   10  A    between atoms: _21  and  _22
REMARK   11  A    between atoms: _24  and  _26
REMARK   12  A    between atoms: _26  and  _27
REMARK   13  A    between atoms: _26  and  _29
REMARK   14  A    between atoms: _29  and  _30
REMARK   15  A    between atoms: _35  and  _37
REMARK   16  A    between atoms: _37  and  _38
REMARK   17  A    between atoms: _37  and  _40
REMARK   18  A    between atoms: _43  and  _45
REMARK   19  A    between atoms: _45  and  _46
REMARK   20  A    between atoms: _45  and  _48
REMARK   21  A    between atoms: _48  and  _49
REMARK   22  A    between atoms: _52  and  _54
REMARK   23  A    between atoms: _54  and  _55
REMARK   24  A    between atoms: _54  and  _57
REMARK   25  A    between atoms: _57  and  _58
REMARK   26  A    between atoms: _61  and  _63
REMARK   27  A    between atoms: _63  and  _64
REMARK   28  A    between atoms: _66  and  _68
REMARK   29  A    between atoms: _68  and  _69
REMARK   30  A    between atoms: _68  and  _71
REMARK   31  A    between atoms: _71  and  _72
REMARK   32  A    between atoms: _72  and  _73
REMARK   33  A    between atoms: _73  and  _74
REMARK   34  A    between atoms: _74  and  _75
REMARK   35  A    between atoms: _79  and  _81
REMARK   36  A    between atoms: _81  and  _82
REMARK   37  A    between atoms: _81  and  _84
REMARK   38  A    between atoms: _84  and  _85
REMARK   39  A    between atoms: _88  and  _90
REMARK   40  A    between atoms: _90  and  _91
REMARK   41  A    between atoms: _90  and  _93
REMARK   42  A    between atoms: _93  and  _94
REMARK   43  A    between atoms: _94  and  _95
REMARK   44  A    between atoms: _95  and  _96
REMARK   45  A    between atoms: _96  and  _97
REMARK   46  A    between atoms: _101  and  _103
REMARK   47  A    between atoms: _103  and  _104
REMARK   48  A    between atoms: _103  and  _106
REMARK   49  A    between atoms: _106  and  _107
REMARK   50  A    between atoms: _110  and  _112
REMARK   51  A    between atoms: _112  and  _113
REMARK   52  A    between atoms: _112  and  _115
REMARK   53  A    between atoms: _115  and  _116
REMARK   54  A    between atoms: _119  and  _121
REMARK   55  A    between atoms: _121  and  _122
REMARK   56  A    between atoms: _121  and  _124
REMARK   57  A    between atoms: _124  and  _125
REMARK   58  A    between atoms: _128  and  _130
REMARK   59  A    between atoms: _130  and  _131
REMARK   60  A    between atoms: _130  and  _133
REMARK   61  A    between atoms: _133  and  _134
REMARK   62  A    between atoms: _134  and  _135
REMARK   63  A    between atoms: _135  and  _136
REMARK   64  A    between atoms: _136  and  _137
REMARK   65  A    between atoms: _141  and  _143
REMARK   66  A    between atoms: _143  and  _144
REMARK   67  A    between atoms: _143  and  _146
REMARK   68  A    between atoms: _146  and  _147
REMARK   69  A    between atoms: _147  and  _148
REMARK   70  A    between atoms: _148  and  _149
REMARK   71  A    between atoms: _158  and  _160
REMARK   72  A    between atoms: _160  and  _161
REMARK   73  A    between atoms: _160  and  _163
REMARK   74  A    between atoms: _166  and  _168
REMARK   75  A    between atoms: _168  and  _169
REMARK   76  A    between atoms: _168  and  _171
REMARK   77  A    between atoms: _171  and  _172
REMARK   78  A    between atoms: _172  and  _173
REMARK   79  A    between atoms: _178  and  _180
REMARK   80  A    between atoms: _180  and  _181
REMARK   81  A    between atoms: _180  and  _183
REMARK   82  A    between atoms: _183  and  _184
REMARK   83  A    between atoms: _184  and  _185
REMARK   84  A    between atoms: _188  and  _190
REMARK   85  A    between atoms: _190  and  _191
REMARK   86  A    between atoms: _190  and  _193
REMARK   87  A    between atoms: _193  and  _194
REMARK   88  A    between atoms: _194  and  _195
REMARK   89  A    between atoms: _198  and  _200
REMARK   90  A    between atoms: _200  and  _201
REMARK   91  A    between atoms: _204  and  _206
REMARK   92  A    between atoms: _206  and  _207
REMARK   93  A    between atoms: _209  and  _211
REMARK   94  A    between atoms: _211  and  _212
REMARK   95  A    between atoms: _212  and  _213
REMARK   96  A    between atoms: _212  and  _214
REMARK   97  A    between atoms: _214  and  _216
REMARK   98  A    between atoms: _216  and  _217
REMARK   99  A    between atoms: _216  and  _219
REMARK  100  A    between atoms: _219  and  _220
REMARK  101  A    between atoms: _223  and  _225
REMARK  102  A    between atoms: _225  and  _226
REMARK  103  A    between atoms: _225  and  _228
REMARK  104  A    between atoms: _228  and  _229
REMARK  105  A    between atoms: _232  and  _234
REMARK  106  A    between atoms: _234  and  _235
REMARK  107  A    between atoms: _234  and  _237
REMARK  108  A    between atoms: _237  and  _238
REMARK  109  A    between atoms: _238  and  _239
REMARK  110  A    between atoms: _244  and  _246
REMARK  111  A    between atoms: _246  and  _247
REMARK  112  A    between atoms: _246  and  _249
REMARK  113  A    between atoms: _249  and  _250
REMARK  114  A    between atoms: _250  and  _251
REMARK  115  A    between atoms: _256  and  _258
REMARK  116  A    between atoms: _258  and  _259
REMARK  117  A    between atoms: _258  and  _261
REMARK  118  A    between atoms: _261  and  _262
REMARK  119  A    between atoms: _265  and  _267
REMARK  120  A    between atoms: _267  and  _268
REMARK  121  A    between atoms: _267  and  _270
REMARK  122  A    between atoms: _270  and  _271
REMARK  123  A    between atoms: _275  and  _276
REMARK  124  A    between atoms: _281  and  _283
REMARK  125  A    between atoms: _283  and  _284
REMARK  126  A    between atoms: _286  and  _288
REMARK  127  A    between atoms: _288  and  _289
REMARK  128  A    between atoms: _288  and  _291
REMARK  129  A    between atoms: _291  and  _292
REMARK  130  A    between atoms: _297  and  _299
REMARK  131  A    between atoms: _299  and  _300
REMARK  132  A    between atoms: _299  and  _302
REMARK  133  A    between atoms: _302  and  _303
REMARK  134  A    between atoms: _303  and  _304
REMARK  135  A    between atoms: _307  and  _309
REMARK  136  A    between atoms: _309  and  _310
REMARK  137  A    between atoms: _309  and  _312
REMARK  138  A    between atoms: _312  and  _313
REMARK  139  A    between atoms: _319  and  _321
REMARK  140  A    between atoms: _321  and  _322
REMARK  141  A    between atoms: _321  and  _324
REMARK  142  A    between atoms: _324  and  _325
REMARK  143  A    between atoms: _325  and  _326
REMARK  144  A    between atoms: _326  and  _327
REMARK  145  A    between atoms: _336  and  _338
REMARK  146  A    between atoms: _338  and  _339
REMARK  147  A    between atoms: _338  and  _341
REMARK  148  A    between atoms: _344  and  _346
REMARK  149  A    between atoms: _346  and  _347
REMARK  150  A    between atoms: _346  and  _349
REMARK  151  A    between atoms: _349  and  _350
REMARK  152  A    between atoms: _353  and  _355
REMARK  153  A    between atoms: _355  and  _356
REMARK  154  A    between atoms: _355  and  _358
REMARK  155  A    between atoms: _358  and  _359
REMARK  156  A    between atoms: _362  and  _364
REMARK  157  A    between atoms: _364  and  _365
REMARK  158  A    between atoms: _364  and  _367
REMARK  159  A    between atoms: _367  and  _368
REMARK  160  A    between atoms: _368  and  _369
REMARK  161  A    between atoms: _371  and  _373
REMARK  162  A    between atoms: _373  and  _374
REMARK  163  A    between atoms: _373  and  _376
REMARK  164  A    between atoms: _376  and  _377
REMARK  165  A    between atoms: _377  and  _378
REMARK  166  A    between atoms: _383  and  _385
REMARK  167  A    between atoms: _385  and  _386
REMARK  168  A    between atoms: _385  and  _388
REMARK  169  A    between atoms: _388  and  _389
REMARK  170  A    between atoms: _392  and  _394
REMARK  171  A    between atoms: _394  and  _395
REMARK  172  A    between atoms: _394  and  _397
REMARK  173  A    between atoms: _397  and  _398
REMARK  174  A    between atoms: _403  and  _405
REMARK  175  A    between atoms: _405  and  _406
REMARK  176  A    between atoms: _405  and  _408
REMARK  177  A    between atoms: _408  and  _409
REMARK  178  A    between atoms: _409  and  _410
REMARK  179  A    between atoms: _410  and  _411
REMARK  180  A    between atoms: _411  and  _412
REMARK  181  A    between atoms: _416  and  _418
REMARK  182  A    between atoms: _418  and  _419
REMARK  183  A    between atoms: _418  and  _421
REMARK  184  A    between atoms: _421  and  _422
REMARK  185  A    between atoms: _425  and  _427
REMARK  186  A    between atoms: _427  and  _428
REMARK  187  A    between atoms: _427  and  _430
REMARK  188  A    between atoms: _430  and  _431
REMARK  189  A    between atoms: _434  and  _436
REMARK  190  A    between atoms: _436  and  _437
REMARK  191  A    between atoms: _436  and  _439
REMARK  192  A    between atoms: _439  and  _440
REMARK  193  A    between atoms: _440  and  _441
REMARK  194  A    between atoms: _441  and  _442
REMARK  195  A    between atoms: _451  and  _453
REMARK  196  A    between atoms: _453  and  _454
REMARK  197  A    between atoms: _453  and  _456
REMARK  198  A    between atoms: _456  and  _457
REMARK  199  A    between atoms: _460  and  _462
REMARK  200  A    between atoms: _462  and  _463
REMARK  201  A    between atoms: _462  and  _465
REMARK  202  A    between atoms: _465  and  _466
REMARK  203  A    between atoms: _469  and  _471
REMARK  204  A    between atoms: _471  and  _472
REMARK  205  A    between atoms: _471  and  _474
REMARK  206  A    between atoms: _474  and  _475
REMARK  207  A    between atoms: _477  and  _479
REMARK  208  A    between atoms: _479  and  _480
REMARK  209  A    between atoms: _483  and  _485
REMARK  210  A    between atoms: _485  and  _486
REMARK  211  A    between atoms: _485  and  _488
REMARK  212  A    between atoms: _488  and  _489
REMARK  213  A    between atoms: _494  and  _496
REMARK  214  A    between atoms: _496  and  _497
REMARK  215  A    between atoms: _496  and  _499
REMARK  216  A    between atoms: _499  and  _500
REMARK  217  A    between atoms: _503  and  _505
REMARK  218  A    between atoms: _505  and  _506
REMARK  219  A    between atoms: _508  and  _510
REMARK  220  A    between atoms: _510  and  _511
REMARK  221  A    between atoms: _510  and  _513
REMARK  222  A    between atoms: _513  and  _514
REMARK  223  A    between atoms: _514  and  _515
REMARK  224  A    between atoms: _518  and  _520
REMARK  225  A    between atoms: _520  and  _521
REMARK  226  A    between atoms: _520  and  _523
REMARK  227  A    between atoms: _523  and  _524
REMARK  228  A    between atoms: _527  and  _529
REMARK  229  A    between atoms: _529  and  _530
REMARK  230  A    between atoms: _529  and  _532
REMARK  231  A    between atoms: _532  and  _533
REMARK  232  A    between atoms: _533  and  _534
REMARK  233  A    between atoms: _534  and  _535
REMARK                            x       y       z     vdW  Elec       q    Type
REMARK                         _______ _______ _______ _____ _____    ______ ____
ROOT
ATOM      1  O   HOH     1     -18.676  23.317  13.820  0.00  0.00    +0.000 OA
ENDROOT
TORSDOF 0
REMARK  Name = ../refined-set-2016/4ncn/4ncn_pocket.pdb
REMARK  233 active torsions:
REMARK  status: ('A' for Active; 'I' for Inactive)
REMARK    1  A    between atoms: _1  and  _3
REMARK    2  A    between atoms: _3  and  _4
REMARK    3  A    between atoms: _3  and  _6
REMARK    4  A    between atoms: _6  and  _7
REMARK    5  A    between atoms: _10  and  _12
REMARK    6  A    between atoms: _12  and  _13
REMARK    7  A    between atoms: _12  and  _15
REMARK    8  A    between atoms: _15  and  _16
REMARK    9  A    between atoms: _19  and  _21
REMARK   10  A    between atoms: _21  and  _22
REMARK   11  A    between atoms: _24  and  _26
REMARK   12  A    between atoms: _26  and  _27
REMARK   13  A    between atoms: _26  and  _29
REMARK   14  A    between atoms: _29  and  _30
REMARK   15  A    between atoms: _35  and  _37
REMARK   16  A    between atoms: _37  and  _38
REMARK   17  A    between atoms: _37  and  _40
REMARK   18  A    between atoms: _43  and  _45
REMARK   19  A    between atoms: _45  and  _46
REMARK   20  A    between atoms: _45  and  _48
REMARK   21  A    between atoms: _48  and  _49
REMARK   22  A    between atoms: _52  and  _54
REMARK   23  A    between atoms: _54  and  _55
REMARK   24  A    between atoms: _54  and  _57
REMARK   25  A    between atoms: _57  and  _58
REMARK   26  A    between atoms: _61  and  _63
REMARK   27  A    between atoms: _63  and  _64
REMARK   28  A    between atoms: _66  and  _68
REMARK   29  A    between atoms: _68  and  _69
REMARK   30  A    between atoms: _68  and  _71
REMARK   31  A    between atoms: _71  and  _72
REMARK   32  A    between atoms: _72  and  _73
REMARK   33  A    between atoms: _73  and  _74
REMARK   34  A    between atoms: _74  and  _75
REMARK   35  A    between atoms: _79  and  _81
REMARK   36  A    between atoms: _81  and  _82
REMARK   37  A    between atoms: _81  and  _84
REMARK   38  A    between atoms: _84  and  _85
REMARK   39  A    between atoms: _88  and  _90
REMARK   40  A    between atoms: _90  and  _91
REMARK   41  A    between atoms: _90  and  _93
REMARK   42  A    between atoms: _93  and  _94
REMARK   43  A    between atoms: _94  and  _95
REMARK   44  A    between atoms: _95  and  _96
REMARK   45  A    between atoms: _96  and  _97
REMARK   46  A    between atoms: _101  and  _103
REMARK   47  A    between atoms: _103  and  _104
REMARK   48  A    between atoms: _103  and  _106
REMARK   49  A    between atoms: _106  and  _107
REMARK   50  A    between atoms: _110  and  _112
REMARK   51  A    between atoms: _112  and  _113
REMARK   52  A    between atoms: _112  and  _115
REMARK   53  A    between atoms: _115  and  _116
REMARK   54  A    between atoms: _119  and  _121
REMARK   55  A    between atoms: _121  and  _122
REMARK   56  A    between atoms: _121  and  _124
REMARK   57  A    between atoms: _124  and  _125
REMARK   58  A    between atoms: _128  and  _130
REMARK   59  A    between atoms: _130  and  _131
REMARK   60  A    between atoms: _130  and  _133
REMARK   61  A    between atoms: _133  and  _134
REMARK   62  A    between atoms: _134  and  _135
REMARK   63  A    between atoms: _135  and  _136
REMARK   64  A    between atoms: _136  and  _137
REMARK   65  A    between atoms: _141  and  _143
REMARK   66  A    between atoms: _143  and  _144
REMARK   67  A    between atoms: _143  and  _146
REMARK   68  A    between atoms: _146  and  _147
REMARK   69  A    between atoms: _147  and  _148
REMARK   70  A    between atoms: _148  and  _149
REMARK   71  A    between atoms: _158  and  _160
REMARK   72  A    between atoms: _160  and  _161
REMARK   73  A    between atoms: _160  and  _163
REMARK   74  A    between atoms: _166  and  _168
REMARK   75  A    between atoms: _168  and  _169
REMARK   76  A    between atoms: _168  and  _171
REMARK   77  A    between atoms: _171  and  _172
REMARK   78  A    between atoms: _172  and  _173
REMARK   79  A    between atoms: _178  and  _180
REMARK   80  A    between atoms: _180  and  _181
REMARK   81  A    between atoms: _180  and  _183
REMARK   82  A    between atoms: _183  and  _184
REMARK   83  A    between atoms: _184  and  _185
REMARK   84  A    between atoms: _188  and  _190
REMARK   85  A    between atoms: _190  and  _191
REMARK   86  A    between atoms: _190  and  _193
REMARK   87  A    between atoms: _193  and  _194
REMARK   88  A    between atoms: _194  and  _195
REMARK   89  A    between atoms: _198  and  _200
REMARK   90  A    between atoms: _200  and  _201
REMARK   91  A    between atoms: _204  and  _206
REMARK   92  A    between atoms: _206  and  _207
REMARK   93  A    between atoms: _209  and  _211
REMARK   94  A    between atoms: _211  and  _212
REMARK   95  A    between atoms: _212  and  _213
REMARK   96  A    between atoms: _212  and  _214
REMARK   97  A    between atoms: _214  and  _216
REMARK   98  A    between atoms: _216  and  _217
REMARK   99  A    between atoms: _216  and  _219
REMARK  100  A    between atoms: _219  and  _220
REMARK  101  A    between atoms: _223  and  _225
REMARK  102  A    between atoms: _225  and  _226
REMARK  103  A    between atoms: _225  and  _228
REMARK  104  A    between atoms: _228  and  _229
REMARK  105  A    between atoms: _232  and  _234
REMARK  106  A    between atoms: _234  and  _235
REMARK  107  A    between atoms: _234  and  _237
REMARK  108  A    between atoms: _237  and  _238
REMARK  109  A    between atoms: _238  and  _239
REMARK  110  A    between atoms: _244  and  _246
REMARK  111  A    between atoms: _246  and  _247
REMARK  112  A    between atoms: _246  and  _249
REMARK  113  A    between atoms: _249  and  _250
REMARK  114  A    between atoms: _250  and  _251
REMARK  115  A    between atoms: _256  and  _258
REMARK  116  A    between atoms: _258  and  _259
REMARK  117  A    between atoms: _258  and  _261
REMARK  118  A    between atoms: _261  and  _262
REMARK  119  A    between atoms: _265  and  _267
REMARK  120  A    between atoms: _267  and  _268
REMARK  121  A    between atoms: _267  and  _270
REMARK  122  A    between atoms: _270  and  _271
REMARK  123  A    between atoms: _275  and  _276
REMARK  124  A    between atoms: _281  and  _283
REMARK  125  A    between atoms: _283  and  _284
REMARK  126  A    between atoms: _286  and  _288
REMARK  127  A    between atoms: _288  and  _289
REMARK  128  A    between atoms: _288  and  _291
REMARK  129  A    between atoms: _291  and  _292
REMARK  130  A    between atoms: _297  and  _299
REMARK  131  A    between atoms: _299  and  _300
REMARK  132  A    between atoms: _299  and  _302
REMARK  133  A    between atoms: _302  and  _303
REMARK  134  A    between atoms: _303  and  _304
REMARK  135  A    between atoms: _307  and  _309
REMARK  136  A    between atoms: _309  and  _310
REMARK  137  A    between atoms: _309  and  _312
REMARK  138  A    between atoms: _312  and  _313
REMARK  139  A    between atoms: _319  and  _321
REMARK  140  A    between atoms: _321  and  _322
REMARK  141  A    between atoms: _321  and  _324
REMARK  142  A    between atoms: _324  and  _325
REMARK  143  A    between atoms: _325  and  _326
REMARK  144  A    between atoms: _326  and  _327
REMARK  145  A    between atoms: _336  and  _338
REMARK  146  A    between atoms: _338  and  _339
REMARK  147  A    between atoms: _338  and  _341
REMARK  148  A    between atoms: _344  and  _346
REMARK  149  A    between atoms: _346  and  _347
REMARK  150  A    between atoms: _346  and  _349
REMARK  151  A    between atoms: _349  and  _350
REMARK  152  A    between atoms: _353  and  _355
REMARK  153  A    between atoms: _355  and  _356
REMARK  154  A    between atoms: _355  and  _358
REMARK  155  A    between atoms: _358  and  _359
REMARK  156  A    between atoms: _362  and  _364
REMARK  157  A    between atoms: _364  and  _365
REMARK  158  A    between atoms: _364  and  _367
REMARK  159  A    between atoms: _367  and  _368
REMARK  160  A    between atoms: _368  and  _369
REMARK  161  A    between atoms: _371  and  _373
REMARK  162  A    between atoms: _373  and  _374
REMARK  163  A    between atoms: _373  and  _376
REMARK  164  A    between atoms: _376  and  _377
REMARK  165  A    between atoms: _377  and  _378
REMARK  166  A    between atoms: _383  and  _385
REMARK  167  A    between atoms: _385  and  _386
REMARK  168  A    between atoms: _385  and  _388
REMARK  169  A    between atoms: _388  and  _389
REMARK  170  A    between atoms: _392  and  _394
REMARK  171  A    between atoms: _394  and  _395
REMARK  172  A    between atoms: _394  and  _397
REMARK  173  A    between atoms: _397  and  _398
REMARK  174  A    between atoms: _403  and  _405
REMARK  175  A    between atoms: _405  and  _406
REMARK  176  A    between atoms: _405  and  _408
REMARK  177  A    between atoms: _408  and  _409
REMARK  178  A    between atoms: _409  and  _410
REMARK  179  A    between atoms: _410  and  _411
REMARK  180  A    between atoms: _411  and  _412
REMARK  181  A    between atoms: _416  and  _418
REMARK  182  A    between atoms: _418  and  _419
REMARK  183  A    between atoms: _418  and  _421
REMARK  184  A    between atoms: _421  and  _422
REMARK  185  A    between atoms: _425  and  _427
REMARK  186  A    between atoms: _427  and  _428
REMARK  187  A    between atoms: _427  and  _430
REMARK  188  A    between atoms: _430  and  _431
REMARK  189  A    between atoms: _434  and  _436
REMARK  190  A    between atoms: _436  and  _437
REMARK  191  A    between atoms: _436  and  _439
REMARK  192  A    between atoms: _439  and  _440
REMARK  193  A    between atoms: _440  and  _441
REMARK  194  A    between atoms: _441  and  _442
REMARK  195  A    between atoms: _451  and  _453
REMARK  196  A    between atoms: _453  and  _454
REMARK  197  A    between atoms: _453  and  _456
REMARK  198  A    between atoms: _456  and  _457
REMARK  199  A    between atoms: _460  and  _462
REMARK  200  A    between atoms: _462  and  _463
REMARK  201  A    between atoms: _462  and  _465
REMARK  202  A    between atoms: _465  and  _466
REMARK  203  A    between atoms: _469  and  _471
REMARK  204  A    between atoms: _471  and  _472
REMARK  205  A    between atoms: _471  and  _474
REMARK  206  A    between atoms: _474  and  _475
REMARK  207  A    between atoms: _477  and  _479
REMARK  208  A    between atoms: _479  and  _480
REMARK  209  A    between atoms: _483  and  _485
REMARK  210  A    between atoms: _485  and  _486
REMARK  211  A    between atoms: _485  and  _488
REMARK  212  A    between atoms: _488  and  _489
REMARK  213  A    between atoms: _494  and  _496
REMARK  214  A    between atoms: _496  and  _497
REMARK  215  A    between atoms: _496  and  _499
REMARK  216  A    between atoms: _499  and  _500
REMARK  217  A    between atoms: _503  and  _505
REMARK  218  A    between atoms: _505  and  _506
REMARK  219  A    between atoms: _508  and  _510
REMARK  220  A    between atoms: _510  and  _511
REMARK  221  A    between atoms: _510  and  _513
REMARK  222  A    between atoms: _513  and  _514
REMARK  223  A    between atoms: _514  and  _515
REMARK  224  A    between atoms: _518  and  _520
REMARK  225  A    between atoms: _520  and  _521
REMARK  226  A    between atoms: _520  and  _523
REMARK  227  A    between atoms: _523  and  _524
REMARK  228  A    between atoms: _527  and  _529
REMARK  229  A    between atoms: _529  and  _530
REMARK  230  A    between atoms: _529  and  _532
REMARK  231  A    between atoms: _532  and  _533
REMARK  232  A    between atoms: _533  and  _534
REMARK  233  A    between atoms: _534  and  _535
REMARK                            x       y       z     vdW  Elec       q    Type
REMARK                         _______ _______ _______ _____ _____    ______ ____
ROOT
ATOM      1  O   HOH     1      -9.509   7.396   5.969  0.00  0.00    +0.000 OA
ENDROOT
TORSDOF 0
REMARK  Name = ../refined-set-2016/4ncn/4ncn_pocket.pdb
REMARK  233 active torsions:
REMARK  status: ('A' for Active; 'I' for Inactive)
REMARK    1  A    between atoms: _1  and  _3
REMARK    2  A    between atoms: _3  and  _4
REMARK    3  A    between atoms: _3  and  _6
REMARK    4  A    between atoms: _6  and  _7
REMARK    5  A    between atoms: _10  and  _12
REMARK    6  A    between atoms: _12  and  _13
REMARK    7  A    between atoms: _12  and  _15
REMARK    8  A    between atoms: _15  and  _16
REMARK    9  A    between atoms: _19  and  _21
REMARK   10  A    between atoms: _21  and  _22
REMARK   11  A    between atoms: _24  and  _26
REMARK   12  A    between atoms: _26  and  _27
REMARK   13  A    between atoms: _26  and  _29
REMARK   14  A    between atoms: _29  and  _30
REMARK   15  A    between atoms: _35  and  _37
REMARK   16  A    between atoms: _37  and  _38
REMARK   17  A    between atoms: _37  and  _40
REMARK   18  A    between atoms: _43  and  _45
REMARK   19  A    between atoms: _45  and  _46
REMARK   20  A    between atoms: _45  and  _48
REMARK   21  A    between atoms: _48  and  _49
REMARK   22  A    between atoms: _52  and  _54
REMARK   23  A    between atoms: _54  and  _55
REMARK   24  A    between atoms: _54  and  _57
REMARK   25  A    between atoms: _57  and  _58
REMARK   26  A    between atoms: _61  and  _63
REMARK   27  A    between atoms: _63  and  _64
REMARK   28  A    between atoms: _66  and  _68
REMARK   29  A    between atoms: _68  and  _69
REMARK   30  A    between atoms: _68  and  _71
REMARK   31  A    between atoms: _71  and  _72
REMARK   32  A    between atoms: _72  and  _73
REMARK   33  A    between atoms: _73  and  _74
REMARK   34  A    between atoms: _74  and  _75
REMARK   35  A    between atoms: _79  and  _81
REMARK   36  A    between atoms: _81  and  _82
REMARK   37  A    between atoms: _81  and  _84
REMARK   38  A    between atoms: _84  and  _85
REMARK   39  A    between atoms: _88  and  _90
REMARK   40  A    between atoms: _90  and  _91
REMARK   41  A    between atoms: _90  and  _93
REMARK   42  A    between atoms: _93  and  _94
REMARK   43  A    between atoms: _94  and  _95
REMARK   44  A    between atoms: _95  and  _96
REMARK   45  A    between atoms: _96  and  _97
REMARK   46  A    between atoms: _101  and  _103
REMARK   47  A    between atoms: _103  and  _104
REMARK   48  A    between atoms: _103  and  _106
REMARK   49  A    between atoms: _106  and  _107
REMARK   50  A    between atoms: _110  and  _112
REMARK   51  A    between atoms: _112  and  _113
REMARK   52  A    between atoms: _112  and  _115
REMARK   53  A    between atoms: _115  and  _116
REMARK   54  A    between atoms: _119  and  _121
REMARK   55  A    between atoms: _121  and  _122
REMARK   56  A    between atoms: _121  and  _124
REMARK   57  A    between atoms: _124  and  _125
REMARK   58  A    between atoms: _128  and  _130
REMARK   59  A    between atoms: _130  and  _131
REMARK   60  A    between atoms: _130  and  _133
REMARK   61  A    between atoms: _133  and  _134
REMARK   62  A    between atoms: _134  and  _135
REMARK   63  A    between atoms: _135  and  _136
REMARK   64  A    between atoms: _136  and  _137
REMARK   65  A    between atoms: _141  and  _143
REMARK   66  A    between atoms: _143  and  _144
REMARK   67  A    between atoms: _143  and  _146
REMARK   68  A    between atoms: _146  and  _147
REMARK   69  A    between atoms: _147  and  _148
REMARK   70  A    between atoms: _148  and  _149
REMARK   71  A    between atoms: _158  and  _160
REMARK   72  A    between atoms: _160  and  _161
REMARK   73  A    between atoms: _160  and  _163
REMARK   74  A    between atoms: _166  and  _168
REMARK   75  A    between atoms: _168  and  _169
REMARK   76  A    between atoms: _168  and  _171
REMARK   77  A    between atoms: _171  and  _172
REMARK   78  A    between atoms: _172  and  _173
REMARK   79  A    between atoms: _178  and  _180
REMARK   80  A    between atoms: _180  and  _181
REMARK   81  A    between atoms: _180  and  _183
REMARK   82  A    between atoms: _183  and  _184
REMARK   83  A    between atoms: _184  and  _185
REMARK   84  A    between atoms: _188  and  _190
REMARK   85  A    between atoms: _190  and  _191
REMARK   86  A    between atoms: _190  and  _193
REMARK   87  A    between atoms: _193  and  _194
REMARK   88  A    between atoms: _194  and  _195
REMARK   89  A    between atoms: _198  and  _200
REMARK   90  A    between atoms: _200  and  _201
REMARK   91  A    between atoms: _204  and  _206
REMARK   92  A    between atoms: _206  and  _207
REMARK   93  A    between atoms: _209  and  _211
REMARK   94  A    between atoms: _211  and  _212
REMARK   95  A    between atoms: _212  and  _213
REMARK   96  A    between atoms: _212  and  _214
REMARK   97  A    between atoms: _214  and  _216
REMARK   98  A    between atoms: _216  and  _217
REMARK   99  A    between atoms: _216  and  _219
REMARK  100  A    between atoms: _219  and  _220
REMARK  101  A    between atoms: _223  and  _225
REMARK  102  A    between atoms: _225  and  _226
REMARK  103  A    between atoms: _225  and  _228
REMARK  104  A    between atoms: _228  and  _229
REMARK  105  A    between atoms: _232  and  _234
REMARK  106  A    between atoms: _234  and  _235
REMARK  107  A    between atoms: _234  and  _237
REMARK  108  A    between atoms: _237  and  _238
REMARK  109  A    between atoms: _238  and  _239
REMARK  110  A    between atoms: _244  and  _246
REMARK  111  A    between atoms: _246  and  _247
REMARK  112  A    between atoms: _246  and  _249
REMARK  113  A    between atoms: _249  and  _250
REMARK  114  A    between atoms: _250  and  _251
REMARK  115  A    between atoms: _256  and  _258
REMARK  116  A    between atoms: _258  and  _259
REMARK  117  A    between atoms: _258  and  _261
REMARK  118  A    between atoms: _261  and  _262
REMARK  119  A    between atoms: _265  and  _267
REMARK  120  A    between atoms: _267  and  _268
REMARK  121  A    between atoms: _267  and  _270
REMARK  122  A    between atoms: _270  and  _271
REMARK  123  A    between atoms: _275  and  _276
REMARK  124  A    between atoms: _281  and  _283
REMARK  125  A    between atoms: _283  and  _284
REMARK  126  A    between atoms: _286  and  _288
REMARK  127  A    between atoms: _288  and  _289
REMARK  128  A    between atoms: _288  and  _291
REMARK  129  A    between atoms: _291  and  _292
REMARK  130  A    between atoms: _297  and  _299
REMARK  131  A    between atoms: _299  and  _300
REMARK  132  A    between atoms: _299  and  _302
REMARK  133  A    between atoms: _302  and  _303
REMARK  134  A    between atoms: _303  and  _304
REMARK  135  A    between atoms: _307  and  _309
REMARK  136  A    between atoms: _309  and  _310
REMARK  137  A    between atoms: _309  and  _312
REMARK  138  A    between atoms: _312  and  _313
REMARK  139  A    between atoms: _319  and  _321
REMARK  140  A    between atoms: _321  and  _322
REMARK  141  A    between atoms: _321  and  _324
REMARK  142  A    between atoms: _324  and  _325
REMARK  143  A    between atoms: _325  and  _326
REMARK  144  A    between atoms: _326  and  _327
REMARK  145  A    between atoms: _336  and  _338
REMARK  146  A    between atoms: _338  and  _339
REMARK  147  A    between atoms: _338  and  _341
REMARK  148  A    between atoms: _344  and  _346
REMARK  149  A    between atoms: _346  and  _347
REMARK  150  A    between atoms: _346  and  _349
REMARK  151  A    between atoms: _349  and  _350
REMARK  152  A    between atoms: _353  and  _355
REMARK  153  A    between atoms: _355  and  _356
REMARK  154  A    between atoms: _355  and  _358
REMARK  155  A    between atoms: _358  and  _359
REMARK  156  A    between atoms: _362  and  _364
REMARK  157  A    between atoms: _364  and  _365
REMARK  158  A    between atoms: _364  and  _367
REMARK  159  A    between atoms: _367  and  _368
REMARK  160  A    between atoms: _368  and  _369
REMARK  161  A    between atoms: _371  and  _373
REMARK  162  A    between atoms: _373  and  _374
REMARK  163  A    between atoms: _373  and  _376
REMARK  164  A    between atoms: _376  and  _377
REMARK  165  A    between atoms: _377  and  _378
REMARK  166  A    between atoms: _383  and  _385
REMARK  167  A    between atoms: _385  and  _386
REMARK  168  A    between atoms: _385  and  _388
REMARK  169  A    between atoms: _388  and  _389
REMARK  170  A    between atoms: _392  and  _394
REMARK  171  A    between atoms: _394  and  _395
REMARK  172  A    between atoms: _394  and  _397
REMARK  173  A    between atoms: _397  and  _398
REMARK  174  A    between atoms: _403  and  _405
REMARK  175  A    between atoms: _405  and  _406
REMARK  176  A    between atoms: _405  and  _408
REMARK  177  A    between atoms: _408  and  _409
REMARK  178  A    between atoms: _409  and  _410
REMARK  179  A    between atoms: _410  and  _411
REMARK  180  A    between atoms: _411  and  _412
REMARK  181  A    between atoms: _416  and  _418
REMARK  182  A    between atoms: _418  and  _419
REMARK  183  A    between atoms: _418  and  _421
REMARK  184  A    between atoms: _421  and  _422
REMARK  185  A    between atoms: _425  and  _427
REMARK  186  A    between atoms: _427  and  _428
REMARK  187  A    between atoms: _427  and  _430
REMARK  188  A    between atoms: _430  and  _431
REMARK  189  A    between atoms: _434  and  _436
REMARK  190  A    between atoms: _436  and  _437
REMARK  191  A    between atoms: _436  and  _439
REMARK  192  A    between atoms: _439  and  _440
REMARK  193  A    between atoms: _440  and  _441
REMARK  194  A    between atoms: _441  and  _442
REMARK  195  A    between atoms: _451  and  _453
REMARK  196  A    between atoms: _453  and  _454
REMARK  197  A    between atoms: _453  and  _456
REMARK  198  A    between atoms: _456  and  _457
REMARK  199  A    between atoms: _460  and  _462
REMARK  200  A    between atoms: _462  and  _463
REMARK  201  A    between atoms: _462  and  _465
REMARK  202  A    between atoms: _465  and  _466
REMARK  203  A    between atoms: _469  and  _471
REMARK  204  A    between atoms: _471  and  _472
REMARK  205  A    between atoms: _471  and  _474
REMARK  206  A    between atoms: _474  and  _475
REMARK  207  A    between atoms: _477  and  _479
REMARK  208  A    between atoms: _479  and  _480
REMARK  209  A    between atoms: _483  and  _485
REMARK  210  A    between atoms: _485  and  _486
REMARK  211  A    between atoms: _485  and  _488
REMARK  212  A    between atoms: _488  and  _489
REMARK  213  A    between atoms: _494  and  _496
REMARK  214  A    between atoms: _496  and  _497
REMARK  215  A    between atoms: _496  and  _499
REMARK  216  A    between atoms: _499  and  _500
REMARK  217  A    between atoms: _503  and  _505
REMARK  218  A    between atoms: _505  and  _506
REMARK  219  A    between atoms: _508  and  _510
REMARK  220  A    between atoms: _510  and  _511
REMARK  221  A    between atoms: _510  and  _513
REMARK  222  A    between atoms: _513  and  _514
REMARK  223  A    between atoms: _514  and  _515
REMARK  224  A    between atoms: _518  and  _520
REMARK  225  A    between atoms: _520  and  _521
REMARK  226  A    between atoms: _520  and  _523
REMARK  227  A    between atoms: _523  and  _524
REMARK  228  A    between atoms: _527  and  _529
REMARK  229  A    between atoms: _529  and  _530
REMARK  230  A    between atoms: _529  and  _532
REMARK  231  A    between atoms: _532  and  _533
REMARK  232  A    between atoms: _533  and  _534
REMARK  233  A    between atoms: _534  and  _535
REMARK                            x       y       z     vdW  Elec       q    Type
REMARK                         _______ _______ _______ _____ _____    ______ ____
ROOT
ATOM      1  O   HOH     1     -16.271  25.476   7.769  0.00  0.00    +0.000 OA
ENDROOT
TORSDOF 0
REMARK  Name = ../refined-set-2016/4ncn/4ncn_pocket.pdb
REMARK  233 active torsions:
REMARK  status: ('A' for Active; 'I' for Inactive)
REMARK    1  A    between atoms: _1  and  _3
REMARK    2  A    between atoms: _3  and  _4
REMARK    3  A    between atoms: _3  and  _6
REMARK    4  A    between atoms: _6  and  _7
REMARK    5  A    between atoms: _10  and  _12
REMARK    6  A    between atoms: _12  and  _13
REMARK    7  A    between atoms: _12  and  _15
REMARK    8  A    between atoms: _15  and  _16
REMARK    9  A    between atoms: _19  and  _21
REMARK   10  A    between atoms: _21  and  _22
REMARK   11  A    between atoms: _24  and  _26
REMARK   12  A    between atoms: _26  and  _27
REMARK   13  A    between atoms: _26  and  _29
REMARK   14  A    between atoms: _29  and  _30
REMARK   15  A    between atoms: _35  and  _37
REMARK   16  A    between atoms: _37  and  _38
REMARK   17  A    between atoms: _37  and  _40
REMARK   18  A    between atoms: _43  and  _45
REMARK   19  A    between atoms: _45  and  _46
REMARK   20  A    between atoms: _45  and  _48
REMARK   21  A    between atoms: _48  and  _49
REMARK   22  A    between atoms: _52  and  _54
REMARK   23  A    between atoms: _54  and  _55
REMARK   24  A    between atoms: _54  and  _57
REMARK   25  A    between atoms: _57  and  _58
REMARK   26  A    between atoms: _61  and  _63
REMARK   27  A    between atoms: _63  and  _64
REMARK   28  A    between atoms: _66  and  _68
REMARK   29  A    between atoms: _68  and  _69
REMARK   30  A    between atoms: _68  and  _71
REMARK   31  A    between atoms: _71  and  _72
REMARK   32  A    between atoms: _72  and  _73
REMARK   33  A    between atoms: _73  and  _74
REMARK   34  A    between atoms: _74  and  _75
REMARK   35  A    between atoms: _79  and  _81
REMARK   36  A    between atoms: _81  and  _82
REMARK   37  A    between atoms: _81  and  _84
REMARK   38  A    between atoms: _84  and  _85
REMARK   39  A    between atoms: _88  and  _90
REMARK   40  A    between atoms: _90  and  _91
REMARK   41  A    between atoms: _90  and  _93
REMARK   42  A    between atoms: _93  and  _94
REMARK   43  A    between atoms: _94  and  _95
REMARK   44  A    between atoms: _95  and  _96
REMARK   45  A    between atoms: _96  and  _97
REMARK   46  A    between atoms: _101  and  _103
REMARK   47  A    between atoms: _103  and  _104
REMARK   48  A    between atoms: _103  and  _106
REMARK   49  A    between atoms: _106  and  _107
REMARK   50  A    between atoms: _110  and  _112
REMARK   51  A    between atoms: _112  and  _113
REMARK   52  A    between atoms: _112  and  _115
REMARK   53  A    between atoms: _115  and  _116
REMARK   54  A    between atoms: _119  and  _121
REMARK   55  A    between atoms: _121  and  _122
REMARK   56  A    between atoms: _121  and  _124
REMARK   57  A    between atoms: _124  and  _125
REMARK   58  A    between atoms: _128  and  _130
REMARK   59  A    between atoms: _130  and  _131
REMARK   60  A    between atoms: _130  and  _133
REMARK   61  A    between atoms: _133  and  _134
REMARK   62  A    between atoms: _134  and  _135
REMARK   63  A    between atoms: _135  and  _136
REMARK   64  A    between atoms: _136  and  _137
REMARK   65  A    between atoms: _141  and  _143
REMARK   66  A    between atoms: _143  and  _144
REMARK   67  A    between atoms: _143  and  _146
REMARK   68  A    between atoms: _146  and  _147
REMARK   69  A    between atoms: _147  and  _148
REMARK   70  A    between atoms: _148  and  _149
REMARK   71  A    between atoms: _158  and  _160
REMARK   72  A    between atoms: _160  and  _161
REMARK   73  A    between atoms: _160  and  _163
REMARK   74  A    between atoms: _166  and  _168
REMARK   75  A    between atoms: _168  and  _169
REMARK   76  A    between atoms: _168  and  _171
REMARK   77  A    between atoms: _171  and  _172
REMARK   78  A    between atoms: _172  and  _173
REMARK   79  A    between atoms: _178  and  _180
REMARK   80  A    between atoms: _180  and  _181
REMARK   81  A    between atoms: _180  and  _183
REMARK   82  A    between atoms: _183  and  _184
REMARK   83  A    between atoms: _184  and  _185
REMARK   84  A    between atoms: _188  and  _190
REMARK   85  A    between atoms: _190  and  _191
REMARK   86  A    between atoms: _190  and  _193
REMARK   87  A    between atoms: _193  and  _194
REMARK   88  A    between atoms: _194  and  _195
REMARK   89  A    between atoms: _198  and  _200
REMARK   90  A    between atoms: _200  and  _201
REMARK   91  A    between atoms: _204  and  _206
REMARK   92  A    between atoms: _206  and  _207
REMARK   93  A    between atoms: _209  and  _211
REMARK   94  A    between atoms: _211  and  _212
REMARK   95  A    between atoms: _212  and  _213
REMARK   96  A    between atoms: _212  and  _214
REMARK   97  A    between atoms: _214  and  _216
REMARK   98  A    between atoms: _216  and  _217
REMARK   99  A    between atoms: _216  and  _219
REMARK  100  A    between atoms: _219  and  _220
REMARK  101  A    between atoms: _223  and  _225
REMARK  102  A    between atoms: _225  and  _226
REMARK  103  A    between atoms: _225  and  _228
REMARK  104  A    between atoms: _228  and  _229
REMARK  105  A    between atoms: _232  and  _234
REMARK  106  A    between atoms: _234  and  _235
REMARK  107  A    between atoms: _234  and  _237
REMARK  108  A    between atoms: _237  and  _238
REMARK  109  A    between atoms: _238  and  _239
REMARK  110  A    between atoms: _244  and  _246
REMARK  111  A    between atoms: _246  and  _247
REMARK  112  A    between atoms: _246  and  _249
REMARK  113  A    between atoms: _249  and  _250
REMARK  114  A    between atoms: _250  and  _251
REMARK  115  A    between atoms: _256  and  _258
REMARK  116  A    between atoms: _258  and  _259
REMARK  117  A    between atoms: _258  and  _261
REMARK  118  A    between atoms: _261  and  _262
REMARK  119  A    between atoms: _265  and  _267
REMARK  120  A    between atoms: _267  and  _268
REMARK  121  A    between atoms: _267  and  _270
REMARK  122  A    between atoms: _270  and  _271
REMARK  123  A    between atoms: _275  and  _276
REMARK  124  A    between atoms: _281  and  _283
REMARK  125  A    between atoms: _283  and  _284
REMARK  126  A    between atoms: _286  and  _288
REMARK  127  A    between atoms: _288  and  _289
REMARK  128  A    between atoms: _288  and  _291
REMARK  129  A    between atoms: _291  and  _292
REMARK  130  A    between atoms: _297  and  _299
REMARK  131  A    between atoms: _299  and  _300
REMARK  132  A    between atoms: _299  and  _302
REMARK  133  A    between atoms: _302  and  _303
REMARK  134  A    between atoms: _303  and  _304
REMARK  135  A    between atoms: _307  and  _309
REMARK  136  A    between atoms: _309  and  _310
REMARK  137  A    between atoms: _309  and  _312
REMARK  138  A    between atoms: _312  and  _313
REMARK  139  A    between atoms: _319  and  _321
REMARK  140  A    between atoms: _321  and  _322
REMARK  141  A    between atoms: _321  and  _324
REMARK  142  A    between atoms: _324  and  _325
REMARK  143  A    between atoms: _325  and  _326
REMARK  144  A    between atoms: _326  and  _327
REMARK  145  A    between atoms: _336  and  _338
REMARK  146  A    between atoms: _338  and  _339
REMARK  147  A    between atoms: _338  and  _341
REMARK  148  A    between atoms: _344  and  _346
REMARK  149  A    between atoms: _346  and  _347
REMARK  150  A    between atoms: _346  and  _349
REMARK  151  A    between atoms: _349  and  _350
REMARK  152  A    between atoms: _353  and  _355
REMARK  153  A    between atoms: _355  and  _356
REMARK  154  A    between atoms: _355  and  _358
REMARK  155  A    between atoms: _358  and  _359
REMARK  156  A    between atoms: _362  and  _364
REMARK  157  A    between atoms: _364  and  _365
REMARK  158  A    between atoms: _364  and  _367
REMARK  159  A    between atoms: _367  and  _368
REMARK  160  A    between atoms: _368  and  _369
REMARK  161  A    between atoms: _371  and  _373
REMARK  162  A    between atoms: _373  and  _374
REMARK  163  A    between atoms: _373  and  _376
REMARK  164  A    between atoms: _376  and  _377
REMARK  165  A    between atoms: _377  and  _378
REMARK  166  A    between atoms: _383  and  _385
REMARK  167  A    between atoms: _385  and  _386
REMARK  168  A    between atoms: _385  and  _388
REMARK  169  A    between atoms: _388  and  _389
REMARK  170  A    between atoms: _392  and  _394
REMARK  171  A    between atoms: _394  and  _395
REMARK  172  A    between atoms: _394  and  _397
REMARK  173  A    between atoms: _397  and  _398
REMARK  174  A    between atoms: _403  and  _405
REMARK  175  A    between atoms: _405  and  _406
REMARK  176  A    between atoms: _405  and  _408
REMARK  177  A    between atoms: _408  and  _409
REMARK  178  A    between atoms: _409  and  _410
REMARK  179  A    between atoms: _410  and  _411
REMARK  180  A    between atoms: _411  and  _412
REMARK  181  A    between atoms: _416  and  _418
REMARK  182  A    between atoms: _418  and  _419
REMARK  183  A    between atoms: _418  and  _421
REMARK  184  A    between atoms: _421  and  _422
REMARK  185  A    between atoms: _425  and  _427
REMARK  186  A    between atoms: _427  and  _428
REMARK  187  A    between atoms: _427  and  _430
REMARK  188  A    between atoms: _430  and  _431
REMARK  189  A    between atoms: _434  and  _436
REMARK  190  A    between atoms: _436  and  _437
REMARK  191  A    between atoms: _436  and  _439
REMARK  192  A    between atoms: _439  and  _440
REMARK  193  A    between atoms: _440  and  _441
REMARK  194  A    between atoms: _441  and  _442
REMARK  195  A    between atoms: _451  and  _453
REMARK  196  A    between atoms: _453  and  _454
REMARK  197  A    between atoms: _453  and  _456
REMARK  198  A    between atoms: _456  and  _457
REMARK  199  A    between atoms: _460  and  _462
REMARK  200  A    between atoms: _462  and  _463
REMARK  201  A    between atoms: _462  and  _465
REMARK  202  A    between atoms: _465  and  _466
REMARK  203  A    between atoms: _469  and  _471
REMARK  204  A    between atoms: _471  and  _472
REMARK  205  A    between atoms: _471  and  _474
REMARK  206  A    between atoms: _474  and  _475
REMARK  207  A    between atoms: _477  and  _479
REMARK  208  A    between atoms: _479  and  _480
REMARK  209  A    between atoms: _483  and  _485
REMARK  210  A    between atoms: _485  and  _486
REMARK  211  A    between atoms: _485  and  _488
REMARK  212  A    between atoms: _488  and  _489
REMARK  213  A    between atoms: _494  and  _496
REMARK  214  A    between atoms: _496  and  _497
REMARK  215  A    between atoms: _496  and  _499
REMARK  216  A    between atoms: _499  and  _500
REMARK  217  A    between atoms: _503  and  _505
REMARK  218  A    between atoms: _505  and  _506
REMARK  219  A    between atoms: _508  and  _510
REMARK  220  A    between atoms: _510  and  _511
REMARK  221  A    between atoms: _510  and  _513
REMARK  222  A    between atoms: _513  and  _514
REMARK  223  A    between atoms: _514  and  _515
REMARK  224  A    between atoms: _518  and  _520
REMARK  225  A    between atoms: _520  and  _521
REMARK  226  A    between atoms: _520  and  _523
REMARK  227  A    between atoms: _523  and  _524
REMARK  228  A    between atoms: _527  and  _529
REMARK  229  A    between atoms: _529  and  _530
REMARK  230  A    between atoms: _529  and  _532
REMARK  231  A    between atoms: _532  and  _533
REMARK  232  A    between atoms: _533  and  _534
REMARK  233  A    between atoms: _534  and  _535
REMARK                            x       y       z     vdW  Elec       q    Type
REMARK                         _______ _______ _______ _____ _____    ______ ____
ROOT
ATOM      1  O   HOH     1      -6.556   7.119   7.848  0.00  0.00    +0.000 OA
ENDROOT
TORSDOF 0
REMARK  Name = ../refined-set-2016/4ncn/4ncn_pocket.pdb
REMARK  233 active torsions:
REMARK  status: ('A' for Active; 'I' for Inactive)
REMARK    1  A    between atoms: _1  and  _3
REMARK    2  A    between atoms: _3  and  _4
REMARK    3  A    between atoms: _3  and  _6
REMARK    4  A    between atoms: _6  and  _7
REMARK    5  A    between atoms: _10  and  _12
REMARK    6  A    between atoms: _12  and  _13
REMARK    7  A    between atoms: _12  and  _15
REMARK    8  A    between atoms: _15  and  _16
REMARK    9  A    between atoms: _19  and  _21
REMARK   10  A    between atoms: _21  and  _22
REMARK   11  A    between atoms: _24  and  _26
REMARK   12  A    between atoms: _26  and  _27
REMARK   13  A    between atoms: _26  and  _29
REMARK   14  A    between atoms: _29  and  _30
REMARK   15  A    between atoms: _35  and  _37
REMARK   16  A    between atoms: _37  and  _38
REMARK   17  A    between atoms: _37  and  _40
REMARK   18  A    between atoms: _43  and  _45
REMARK   19  A    between atoms: _45  and  _46
REMARK   20  A    between atoms: _45  and  _48
REMARK   21  A    between atoms: _48  and  _49
REMARK   22  A    between atoms: _52  and  _54
REMARK   23  A    between atoms: _54  and  _55
REMARK   24  A    between atoms: _54  and  _57
REMARK   25  A    between atoms: _57  and  _58
REMARK   26  A    between atoms: _61  and  _63
REMARK   27  A    between atoms: _63  and  _64
REMARK   28  A    between atoms: _66  and  _68
REMARK   29  A    between atoms: _68  and  _69
REMARK   30  A    between atoms: _68  and  _71
REMARK   31  A    between atoms: _71  and  _72
REMARK   32  A    between atoms: _72  and  _73
REMARK   33  A    between atoms: _73  and  _74
REMARK   34  A    between atoms: _74  and  _75
REMARK   35  A    between atoms: _79  and  _81
REMARK   36  A    between atoms: _81  and  _82
REMARK   37  A    between atoms: _81  and  _84
REMARK   38  A    between atoms: _84  and  _85
REMARK   39  A    between atoms: _88  and  _90
REMARK   40  A    between atoms: _90  and  _91
REMARK   41  A    between atoms: _90  and  _93
REMARK   42  A    between atoms: _93  and  _94
REMARK   43  A    between atoms: _94  and  _95
REMARK   44  A    between atoms: _95  and  _96
REMARK   45  A    between atoms: _96  and  _97
REMARK   46  A    between atoms: _101  and  _103
REMARK   47  A    between atoms: _103  and  _104
REMARK   48  A    between atoms: _103  and  _106
REMARK   49  A    between atoms: _106  and  _107
REMARK   50  A    between atoms: _110  and  _112
REMARK   51  A    between atoms: _112  and  _113
REMARK   52  A    between atoms: _112  and  _115
REMARK   53  A    between atoms: _115  and  _116
REMARK   54  A    between atoms: _119  and  _121
REMARK   55  A    between atoms: _121  and  _122
REMARK   56  A    between atoms: _121  and  _124
REMARK   57  A    between atoms: _124  and  _125
REMARK   58  A    between atoms: _128  and  _130
REMARK   59  A    between atoms: _130  and  _131
REMARK   60  A    between atoms: _130  and  _133
REMARK   61  A    between atoms: _133  and  _134
REMARK   62  A    between atoms: _134  and  _135
REMARK   63  A    between atoms: _135  and  _136
REMARK   64  A    between atoms: _136  and  _137
REMARK   65  A    between atoms: _141  and  _143
REMARK   66  A    between atoms: _143  and  _144
REMARK   67  A    between atoms: _143  and  _146
REMARK   68  A    between atoms: _146  and  _147
REMARK   69  A    between atoms: _147  and  _148
REMARK   70  A    between atoms: _148  and  _149
REMARK   71  A    between atoms: _158  and  _160
REMARK   72  A    between atoms: _160  and  _161
REMARK   73  A    between atoms: _160  and  _163
REMARK   74  A    between atoms: _166  and  _168
REMARK   75  A    between atoms: _168  and  _169
REMARK   76  A    between atoms: _168  and  _171
REMARK   77  A    between atoms: _171  and  _172
REMARK   78  A    between atoms: _172  and  _173
REMARK   79  A    between atoms: _178  and  _180
REMARK   80  A    between atoms: _180  and  _181
REMARK   81  A    between atoms: _180  and  _183
REMARK   82  A    between atoms: _183  and  _184
REMARK   83  A    between atoms: _184  and  _185
REMARK   84  A    between atoms: _188  and  _190
REMARK   85  A    between atoms: _190  and  _191
REMARK   86  A    between atoms: _190  and  _193
REMARK   87  A    between atoms: _193  and  _194
REMARK   88  A    between atoms: _194  and  _195
REMARK   89  A    between atoms: _198  and  _200
REMARK   90  A    between atoms: _200  and  _201
REMARK   91  A    between atoms: _204  and  _206
REMARK   92  A    between atoms: _206  and  _207
REMARK   93  A    between atoms: _209  and  _211
REMARK   94  A    between atoms: _211  and  _212
REMARK   95  A    between atoms: _212  and  _213
REMARK   96  A    between atoms: _212  and  _214
REMARK   97  A    between atoms: _214  and  _216
REMARK   98  A    between atoms: _216  and  _217
REMARK   99  A    between atoms: _216  and  _219
REMARK  100  A    between atoms: _219  and  _220
REMARK  101  A    between atoms: _223  and  _225
REMARK  102  A    between atoms: _225  and  _226
REMARK  103  A    between atoms: _225  and  _228
REMARK  104  A    between atoms: _228  and  _229
REMARK  105  A    between atoms: _232  and  _234
REMARK  106  A    between atoms: _234  and  _235
REMARK  107  A    between atoms: _234  and  _237
REMARK  108  A    between atoms: _237  and  _238
REMARK  109  A    between atoms: _238  and  _239
REMARK  110  A    between atoms: _244  and  _246
REMARK  111  A    between atoms: _246  and  _247
REMARK  112  A    between atoms: _246  and  _249
REMARK  113  A    between atoms: _249  and  _250
REMARK  114  A    between atoms: _250  and  _251
REMARK  115  A    between atoms: _256  and  _258
REMARK  116  A    between atoms: _258  and  _259
REMARK  117  A    between atoms: _258  and  _261
REMARK  118  A    between atoms: _261  and  _262
REMARK  119  A    between atoms: _265  and  _267
REMARK  120  A    between atoms: _267  and  _268
REMARK  121  A    between atoms: _267  and  _270
REMARK  122  A    between atoms: _270  and  _271
REMARK  123  A    between atoms: _275  and  _276
REMARK  124  A    between atoms: _281  and  _283
REMARK  125  A    between atoms: _283  and  _284
REMARK  126  A    between atoms: _286  and  _288
REMARK  127  A    between atoms: _288  and  _289
REMARK  128  A    between atoms: _288  and  _291
REMARK  129  A    between atoms: _291  and  _292
REMARK  130  A    between atoms: _297  and  _299
REMARK  131  A    between atoms: _299  and  _300
REMARK  132  A    between atoms: _299  and  _302
REMARK  133  A    between atoms: _302  and  _303
REMARK  134  A    between atoms: _303  and  _304
REMARK  135  A    between atoms: _307  and  _309
REMARK  136  A    between atoms: _309  and  _310
REMARK  137  A    between atoms: _309  and  _312
REMARK  138  A    between atoms: _312  and  _313
REMARK  139  A    between atoms: _319  and  _321
REMARK  140  A    between atoms: _321  and  _322
REMARK  141  A    between atoms: _321  and  _324
REMARK  142  A    between atoms: _324  and  _325
REMARK  143  A    between atoms: _325  and  _326
REMARK  144  A    between atoms: _326  and  _327
REMARK  145  A    between atoms: _336  and  _338
REMARK  146  A    between atoms: _338  and  _339
REMARK  147  A    between atoms: _338  and  _341
REMARK  148  A    between atoms: _344  and  _346
REMARK  149  A    between atoms: _346  and  _347
REMARK  150  A    between atoms: _346  and  _349
REMARK  151  A    between atoms: _349  and  _350
REMARK  152  A    between atoms: _353  and  _355
REMARK  153  A    between atoms: _355  and  _356
REMARK  154  A    between atoms: _355  and  _358
REMARK  155  A    between atoms: _358  and  _359
REMARK  156  A    between atoms: _362  and  _364
REMARK  157  A    between atoms: _364  and  _365
REMARK  158  A    between atoms: _364  and  _367
REMARK  159  A    between atoms: _367  and  _368
REMARK  160  A    between atoms: _368  and  _369
REMARK  161  A    between atoms: _371  and  _373
REMARK  162  A    between atoms: _373  and  _374
REMARK  163  A    between atoms: _373  and  _376
REMARK  164  A    between atoms: _376  and  _377
REMARK  165  A    between atoms: _377  and  _378
REMARK  166  A    between atoms: _383  and  _385
REMARK  167  A    between atoms: _385  and  _386
REMARK  168  A    between atoms: _385  and  _388
REMARK  169  A    between atoms: _388  and  _389
REMARK  170  A    between atoms: _392  and  _394
REMARK  171  A    between atoms: _394  and  _395
REMARK  172  A    between atoms: _394  and  _397
REMARK  173  A    between atoms: _397  and  _398
REMARK  174  A    between atoms: _403  and  _405
REMARK  175  A    between atoms: _405  and  _406
REMARK  176  A    between atoms: _405  and  _408
REMARK  177  A    between atoms: _408  and  _409
REMARK  178  A    between atoms: _409  and  _410
REMARK  179  A    between atoms: _410  and  _411
REMARK  180  A    between atoms: _411  and  _412
REMARK  181  A    between atoms: _416  and  _418
REMARK  182  A    between atoms: _418  and  _419
REMARK  183  A    between atoms: _418  and  _421
REMARK  184  A    between atoms: _421  and  _422
REMARK  185  A    between atoms: _425  and  _427
REMARK  186  A    between atoms: _427  and  _428
REMARK  187  A    between atoms: _427  and  _430
REMARK  188  A    between atoms: _430  and  _431
REMARK  189  A    between atoms: _434  and  _436
REMARK  190  A    between atoms: _436  and  _437
REMARK  191  A    between atoms: _436  and  _439
REMARK  192  A    between atoms: _439  and  _440
REMARK  193  A    between atoms: _440  and  _441
REMARK  194  A    between atoms: _441  and  _442
REMARK  195  A    between atoms: _451  and  _453
REMARK  196  A    between atoms: _453  and  _454
REMARK  197  A    between atoms: _453  and  _456
REMARK  198  A    between atoms: _456  and  _457
REMARK  199  A    between atoms: _460  and  _462
REMARK  200  A    between atoms: _462  and  _463
REMARK  201  A    between atoms: _462  and  _465
REMARK  202  A    between atoms: _465  and  _466
REMARK  203  A    between atoms: _469  and  _471
REMARK  204  A    between atoms: _471  and  _472
REMARK  205  A    between atoms: _471  and  _474
REMARK  206  A    between atoms: _474  and  _475
REMARK  207  A    between atoms: _477  and  _479
REMARK  208  A    between atoms: _479  and  _480
REMARK  209  A    between atoms: _483  and  _485
REMARK  210  A    between atoms: _485  and  _486
REMARK  211  A    between atoms: _485  and  _488
REMARK  212  A    between atoms: _488  and  _489
REMARK  213  A    between atoms: _494  and  _496
REMARK  214  A    between atoms: _496  and  _497
REMARK  215  A    between atoms: _496  and  _499
REMARK  216  A    between atoms: _499  and  _500
REMARK  217  A    between atoms: _503  and  _505
REMARK  218  A    between atoms: _505  and  _506
REMARK  219  A    between atoms: _508  and  _510
REMARK  220  A    between atoms: _510  and  _511
REMARK  221  A    between atoms: _510  and  _513
REMARK  222  A    between atoms: _513  and  _514
REMARK  223  A    between atoms: _514  and  _515
REMARK  224  A    between atoms: _518  and  _520
REMARK  225  A    between atoms: _520  and  _521
REMARK  226  A    between atoms: _520  and  _523
REMARK  227  A    between atoms: _523  and  _524
REMARK  228  A    between atoms: _527  and  _529
REMARK  229  A    between atoms: _529  and  _530
REMARK  230  A    between atoms: _529  and  _532
REMARK  231  A    between atoms: _532  and  _533
REMARK  232  A    between atoms: _533  and  _534
REMARK  233  A    between atoms: _534  and  _535
REMARK                            x       y       z     vdW  Elec       q    Type
REMARK                         _______ _______ _______ _____ _____    ______ ____
ROOT
ATOM      1  O   HOH     1     -10.947  19.959   4.853  0.00  0.00    +0.000 OA
ENDROOT
TORSDOF 0
REMARK  Name = ../refined-set-2016/4ncn/4ncn_pocket.pdb
REMARK  233 active torsions:
REMARK  status: ('A' for Active; 'I' for Inactive)
REMARK    1  A    between atoms: _1  and  _3
REMARK    2  A    between atoms: _3  and  _4
REMARK    3  A    between atoms: _3  and  _6
REMARK    4  A    between atoms: _6  and  _7
REMARK    5  A    between atoms: _10  and  _12
REMARK    6  A    between atoms: _12  and  _13
REMARK    7  A    between atoms: _12  and  _15
REMARK    8  A    between atoms: _15  and  _16
REMARK    9  A    between atoms: _19  and  _21
REMARK   10  A    between atoms: _21  and  _22
REMARK   11  A    between atoms: _24  and  _26
REMARK   12  A    between atoms: _26  and  _27
REMARK   13  A    between atoms: _26  and  _29
REMARK   14  A    between atoms: _29  and  _30
REMARK   15  A    between atoms: _35  and  _37
REMARK   16  A    between atoms: _37  and  _38
REMARK   17  A    between atoms: _37  and  _40
REMARK   18  A    between atoms: _43  and  _45
REMARK   19  A    between atoms: _45  and  _46
REMARK   20  A    between atoms: _45  and  _48
REMARK   21  A    between atoms: _48  and  _49
REMARK   22  A    between atoms: _52  and  _54
REMARK   23  A    between atoms: _54  and  _55
REMARK   24  A    between atoms: _54  and  _57
REMARK   25  A    between atoms: _57  and  _58
REMARK   26  A    between atoms: _61  and  _63
REMARK   27  A    between atoms: _63  and  _64
REMARK   28  A    between atoms: _66  and  _68
REMARK   29  A    between atoms: _68  and  _69
REMARK   30  A    between atoms: _68  and  _71
REMARK   31  A    between atoms: _71  and  _72
REMARK   32  A    between atoms: _72  and  _73
REMARK   33  A    between atoms: _73  and  _74
REMARK   34  A    between atoms: _74  and  _75
REMARK   35  A    between atoms: _79  and  _81
REMARK   36  A    between atoms: _81  and  _82
REMARK   37  A    between atoms: _81  and  _84
REMARK   38  A    between atoms: _84  and  _85
REMARK   39  A    between atoms: _88  and  _90
REMARK   40  A    between atoms: _90  and  _91
REMARK   41  A    between atoms: _90  and  _93
REMARK   42  A    between atoms: _93  and  _94
REMARK   43  A    between atoms: _94  and  _95
REMARK   44  A    between atoms: _95  and  _96
REMARK   45  A    between atoms: _96  and  _97
REMARK   46  A    between atoms: _101  and  _103
REMARK   47  A    between atoms: _103  and  _104
REMARK   48  A    between atoms: _103  and  _106
REMARK   49  A    between atoms: _106  and  _107
REMARK   50  A    between atoms: _110  and  _112
REMARK   51  A    between atoms: _112  and  _113
REMARK   52  A    between atoms: _112  and  _115
REMARK   53  A    between atoms: _115  and  _116
REMARK   54  A    between atoms: _119  and  _121
REMARK   55  A    between atoms: _121  and  _122
REMARK   56  A    between atoms: _121  and  _124
REMARK   57  A    between atoms: _124  and  _125
REMARK   58  A    between atoms: _128  and  _130
REMARK   59  A    between atoms: _130  and  _131
REMARK   60  A    between atoms: _130  and  _133
REMARK   61  A    between atoms: _133  and  _134
REMARK   62  A    between atoms: _134  and  _135
REMARK   63  A    between atoms: _135  and  _136
REMARK   64  A    between atoms: _136  and  _137
REMARK   65  A    between atoms: _141  and  _143
REMARK   66  A    between atoms: _143  and  _144
REMARK   67  A    between atoms: _143  and  _146
REMARK   68  A    between atoms: _146  and  _147
REMARK   69  A    between atoms: _147  and  _148
REMARK   70  A    between atoms: _148  and  _149
REMARK   71  A    between atoms: _158  and  _160
REMARK   72  A    between atoms: _160  and  _161
REMARK   73  A    between atoms: _160  and  _163
REMARK   74  A    between atoms: _166  and  _168
REMARK   75  A    between atoms: _168  and  _169
REMARK   76  A    between atoms: _168  and  _171
REMARK   77  A    between atoms: _171  and  _172
REMARK   78  A    between atoms: _172  and  _173
REMARK   79  A    between atoms: _178  and  _180
REMARK   80  A    between atoms: _180  and  _181
REMARK   81  A    between atoms: _180  and  _183
REMARK   82  A    between atoms: _183  and  _184
REMARK   83  A    between atoms: _184  and  _185
REMARK   84  A    between atoms: _188  and  _190
REMARK   85  A    between atoms: _190  and  _191
REMARK   86  A    between atoms: _190  and  _193
REMARK   87  A    between atoms: _193  and  _194
REMARK   88  A    between atoms: _194  and  _195
REMARK   89  A    between atoms: _198  and  _200
REMARK   90  A    between atoms: _200  and  _201
REMARK   91  A    between atoms: _204  and  _206
REMARK   92  A    between atoms: _206  and  _207
REMARK   93  A    between atoms: _209  and  _211
REMARK   94  A    between atoms: _211  and  _212
REMARK   95  A    between atoms: _212  and  _213
REMARK   96  A    between atoms: _212  and  _214
REMARK   97  A    between atoms: _214  and  _216
REMARK   98  A    between atoms: _216  and  _217
REMARK   99  A    between atoms: _216  and  _219
REMARK  100  A    between atoms: _219  and  _220
REMARK  101  A    between atoms: _223  and  _225
REMARK  102  A    between atoms: _225  and  _226
REMARK  103  A    between atoms: _225  and  _228
REMARK  104  A    between atoms: _228  and  _229
REMARK  105  A    between atoms: _232  and  _234
REMARK  106  A    between atoms: _234  and  _235
REMARK  107  A    between atoms: _234  and  _237
REMARK  108  A    between atoms: _237  and  _238
REMARK  109  A    between atoms: _238  and  _239
REMARK  110  A    between atoms: _244  and  _246
REMARK  111  A    between atoms: _246  and  _247
REMARK  112  A    between atoms: _246  and  _249
REMARK  113  A    between atoms: _249  and  _250
REMARK  114  A    between atoms: _250  and  _251
REMARK  115  A    between atoms: _256  and  _258
REMARK  116  A    between atoms: _258  and  _259
REMARK  117  A    between atoms: _258  and  _261
REMARK  118  A    between atoms: _261  and  _262
REMARK  119  A    between atoms: _265  and  _267
REMARK  120  A    between atoms: _267  and  _268
REMARK  121  A    between atoms: _267  and  _270
REMARK  122  A    between atoms: _270  and  _271
REMARK  123  A    between atoms: _275  and  _276
REMARK  124  A    between atoms: _281  and  _283
REMARK  125  A    between atoms: _283  and  _284
REMARK  126  A    between atoms: _286  and  _288
REMARK  127  A    between atoms: _288  and  _289
REMARK  128  A    between atoms: _288  and  _291
REMARK  129  A    between atoms: _291  and  _292
REMARK  130  A    between atoms: _297  and  _299
REMARK  131  A    between atoms: _299  and  _300
REMARK  132  A    between atoms: _299  and  _302
REMARK  133  A    between atoms: _302  and  _303
REMARK  134  A    between atoms: _303  and  _304
REMARK  135  A    between atoms: _307  and  _309
REMARK  136  A    between atoms: _309  and  _310
REMARK  137  A    between atoms: _309  and  _312
REMARK  138  A    between atoms: _312  and  _313
REMARK  139  A    between atoms: _319  and  _321
REMARK  140  A    between atoms: _321  and  _322
REMARK  141  A    between atoms: _321  and  _324
REMARK  142  A    between atoms: _324  and  _325
REMARK  143  A    between atoms: _325  and  _326
REMARK  144  A    between atoms: _326  and  _327
REMARK  145  A    between atoms: _336  and  _338
REMARK  146  A    between atoms: _338  and  _339
REMARK  147  A    between atoms: _338  and  _341
REMARK  148  A    between atoms: _344  and  _346
REMARK  149  A    between atoms: _346  and  _347
REMARK  150  A    between atoms: _346  and  _349
REMARK  151  A    between atoms: _349  and  _350
REMARK  152  A    between atoms: _353  and  _355
REMARK  153  A    between atoms: _355  and  _356
REMARK  154  A    between atoms: _355  and  _358
REMARK  155  A    between atoms: _358  and  _359
REMARK  156  A    between atoms: _362  and  _364
REMARK  157  A    between atoms: _364  and  _365
REMARK  158  A    between atoms: _364  and  _367
REMARK  159  A    between atoms: _367  and  _368
REMARK  160  A    between atoms: _368  and  _369
REMARK  161  A    between atoms: _371  and  _373
REMARK  162  A    between atoms: _373  and  _374
REMARK  163  A    between atoms: _373  and  _376
REMARK  164  A    between atoms: _376  and  _377
REMARK  165  A    between atoms: _377  and  _378
REMARK  166  A    between atoms: _383  and  _385
REMARK  167  A    between atoms: _385  and  _386
REMARK  168  A    between atoms: _385  and  _388
REMARK  169  A    between atoms: _388  and  _389
REMARK  170  A    between atoms: _392  and  _394
REMARK  171  A    between atoms: _394  and  _395
REMARK  172  A    between atoms: _394  and  _397
REMARK  173  A    between atoms: _397  and  _398
REMARK  174  A    between atoms: _403  and  _405
REMARK  175  A    between atoms: _405  and  _406
REMARK  176  A    between atoms: _405  and  _408
REMARK  177  A    between atoms: _408  and  _409
REMARK  178  A    between atoms: _409  and  _410
REMARK  179  A    between atoms: _410  and  _411
REMARK  180  A    between atoms: _411  and  _412
REMARK  181  A    between atoms: _416  and  _418
REMARK  182  A    between atoms: _418  and  _419
REMARK  183  A    between atoms: _418  and  _421
REMARK  184  A    between atoms: _421  and  _422
REMARK  185  A    between atoms: _425  and  _427
REMARK  186  A    between atoms: _427  and  _428
REMARK  187  A    between atoms: _427  and  _430
REMARK  188  A    between atoms: _430  and  _431
REMARK  189  A    between atoms: _434  and  _436
REMARK  190  A    between atoms: _436  and  _437
REMARK  191  A    between atoms: _436  and  _439
REMARK  192  A    between atoms: _439  and  _440
REMARK  193  A    between atoms: _440  and  _441
REMARK  194  A    between atoms: _441  and  _442
REMARK  195  A    between atoms: _451  and  _453
REMARK  196  A    between atoms: _453  and  _454
REMARK  197  A    between atoms: _453  and  _456
REMARK  198  A    between atoms: _456  and  _457
REMARK  199  A    between atoms: _460  and  _462
REMARK  200  A    between atoms: _462  and  _463
REMARK  201  A    between atoms: _462  and  _465
REMARK  202  A    between atoms: _465  and  _466
REMARK  203  A    between atoms: _469  and  _471
REMARK  204  A    between atoms: _471  and  _472
REMARK  205  A    between atoms: _471  and  _474
REMARK  206  A    between atoms: _474  and  _475
REMARK  207  A    between atoms: _477  and  _479
REMARK  208  A    between atoms: _479  and  _480
REMARK  209  A    between atoms: _483  and  _485
REMARK  210  A    between atoms: _485  and  _486
REMARK  211  A    between atoms: _485  and  _488
REMARK  212  A    between atoms: _488  and  _489
REMARK  213  A    between atoms: _494  and  _496
REMARK  214  A    between atoms: _496  and  _497
REMARK  215  A    between atoms: _496  and  _499
REMARK  216  A    between atoms: _499  and  _500
REMARK  217  A    between atoms: _503  and  _505
REMARK  218  A    between atoms: _505  and  _506
REMARK  219  A    between atoms: _508  and  _510
REMARK  220  A    between atoms: _510  and  _511
REMARK  221  A    between atoms: _510  and  _513
REMARK  222  A    between atoms: _513  and  _514
REMARK  223  A    between atoms: _514  and  _515
REMARK  224  A    between atoms: _518  and  _520
REMARK  225  A    between atoms: _520  and  _521
REMARK  226  A    between atoms: _520  and  _523
REMARK  227  A    between atoms: _523  and  _524
REMARK  228  A    between atoms: _527  and  _529
REMARK  229  A    between atoms: _529  and  _530
REMARK  230  A    between atoms: _529  and  _532
REMARK  231  A    between atoms: _532  and  _533
REMARK  232  A    between atoms: _533  and  _534
REMARK  233  A    between atoms: _534  and  _535
REMARK                            x       y       z     vdW  Elec       q    Type
REMARK                         _______ _______ _______ _____ _____    ______ ____
ROOT
ATOM      1  O   HOH     1     -19.030  14.866  11.960  0.00  0.00    +0.000 OA
ENDROOT
TORSDOF 0
REMARK  Name = ../refined-set-2016/4ncn/4ncn_pocket.pdb
REMARK  233 active torsions:
REMARK  status: ('A' for Active; 'I' for Inactive)
REMARK    1  A    between atoms: _1  and  _3
REMARK    2  A    between atoms: _3  and  _4
REMARK    3  A    between atoms: _3  and  _6
REMARK    4  A    between atoms: _6  and  _7
REMARK    5  A    between atoms: _10  and  _12
REMARK    6  A    between atoms: _12  and  _13
REMARK    7  A    between atoms: _12  and  _15
REMARK    8  A    between atoms: _15  and  _16
REMARK    9  A    between atoms: _19  and  _21
REMARK   10  A    between atoms: _21  and  _22
REMARK   11  A    between atoms: _24  and  _26
REMARK   12  A    between atoms: _26  and  _27
REMARK   13  A    between atoms: _26  and  _29
REMARK   14  A    between atoms: _29  and  _30
REMARK   15  A    between atoms: _35  and  _37
REMARK   16  A    between atoms: _37  and  _38
REMARK   17  A    between atoms: _37  and  _40
REMARK   18  A    between atoms: _43  and  _45
REMARK   19  A    between atoms: _45  and  _46
REMARK   20  A    between atoms: _45  and  _48
REMARK   21  A    between atoms: _48  and  _49
REMARK   22  A    between atoms: _52  and  _54
REMARK   23  A    between atoms: _54  and  _55
REMARK   24  A    between atoms: _54  and  _57
REMARK   25  A    between atoms: _57  and  _58
REMARK   26  A    between atoms: _61  and  _63
REMARK   27  A    between atoms: _63  and  _64
REMARK   28  A    between atoms: _66  and  _68
REMARK   29  A    between atoms: _68  and  _69
REMARK   30  A    between atoms: _68  and  _71
REMARK   31  A    between atoms: _71  and  _72
REMARK   32  A    between atoms: _72  and  _73
REMARK   33  A    between atoms: _73  and  _74
REMARK   34  A    between atoms: _74  and  _75
REMARK   35  A    between atoms: _79  and  _81
REMARK   36  A    between atoms: _81  and  _82
REMARK   37  A    between atoms: _81  and  _84
REMARK   38  A    between atoms: _84  and  _85
REMARK   39  A    between atoms: _88  and  _90
REMARK   40  A    between atoms: _90  and  _91
REMARK   41  A    between atoms: _90  and  _93
REMARK   42  A    between atoms: _93  and  _94
REMARK   43  A    between atoms: _94  and  _95
REMARK   44  A    between atoms: _95  and  _96
REMARK   45  A    between atoms: _96  and  _97
REMARK   46  A    between atoms: _101  and  _103
REMARK   47  A    between atoms: _103  and  _104
REMARK   48  A    between atoms: _103  and  _106
REMARK   49  A    between atoms: _106  and  _107
REMARK   50  A    between atoms: _110  and  _112
REMARK   51  A    between atoms: _112  and  _113
REMARK   52  A    between atoms: _112  and  _115
REMARK   53  A    between atoms: _115  and  _116
REMARK   54  A    between atoms: _119  and  _121
REMARK   55  A    between atoms: _121  and  _122
REMARK   56  A    between atoms: _121  and  _124
REMARK   57  A    between atoms: _124  and  _125
REMARK   58  A    between atoms: _128  and  _130
REMARK   59  A    between atoms: _130  and  _131
REMARK   60  A    between atoms: _130  and  _133
REMARK   61  A    between atoms: _133  and  _134
REMARK   62  A    between atoms: _134  and  _135
REMARK   63  A    between atoms: _135  and  _136
REMARK   64  A    between atoms: _136  and  _137
REMARK   65  A    between atoms: _141  and  _143
REMARK   66  A    between atoms: _143  and  _144
REMARK   67  A    between atoms: _143  and  _146
REMARK   68  A    between atoms: _146  and  _147
REMARK   69  A    between atoms: _147  and  _148
REMARK   70  A    between atoms: _148  and  _149
REMARK   71  A    between atoms: _158  and  _160
REMARK   72  A    between atoms: _160  and  _161
REMARK   73  A    between atoms: _160  and  _163
REMARK   74  A    between atoms: _166  and  _168
REMARK   75  A    between atoms: _168  and  _169
REMARK   76  A    between atoms: _168  and  _171
REMARK   77  A    between atoms: _171  and  _172
REMARK   78  A    between atoms: _172  and  _173
REMARK   79  A    between atoms: _178  and  _180
REMARK   80  A    between atoms: _180  and  _181
REMARK   81  A    between atoms: _180  and  _183
REMARK   82  A    between atoms: _183  and  _184
REMARK   83  A    between atoms: _184  and  _185
REMARK   84  A    between atoms: _188  and  _190
REMARK   85  A    between atoms: _190  and  _191
REMARK   86  A    between atoms: _190  and  _193
REMARK   87  A    between atoms: _193  and  _194
REMARK   88  A    between atoms: _194  and  _195
REMARK   89  A    between atoms: _198  and  _200
REMARK   90  A    between atoms: _200  and  _201
REMARK   91  A    between atoms: _204  and  _206
REMARK   92  A    between atoms: _206  and  _207
REMARK   93  A    between atoms: _209  and  _211
REMARK   94  A    between atoms: _211  and  _212
REMARK   95  A    between atoms: _212  and  _213
REMARK   96  A    between atoms: _212  and  _214
REMARK   97  A    between atoms: _214  and  _216
REMARK   98  A    between atoms: _216  and  _217
REMARK   99  A    between atoms: _216  and  _219
REMARK  100  A    between atoms: _219  and  _220
REMARK  101  A    between atoms: _223  and  _225
REMARK  102  A    between atoms: _225  and  _226
REMARK  103  A    between atoms: _225  and  _228
REMARK  104  A    between atoms: _228  and  _229
REMARK  105  A    between atoms: _232  and  _234
REMARK  106  A    between atoms: _234  and  _235
REMARK  107  A    between atoms: _234  and  _237
REMARK  108  A    between atoms: _237  and  _238
REMARK  109  A    between atoms: _238  and  _239
REMARK  110  A    between atoms: _244  and  _246
REMARK  111  A    between atoms: _246  and  _247
REMARK  112  A    between atoms: _246  and  _249
REMARK  113  A    between atoms: _249  and  _250
REMARK  114  A    between atoms: _250  and  _251
REMARK  115  A    between atoms: _256  and  _258
REMARK  116  A    between atoms: _258  and  _259
REMARK  117  A    between atoms: _258  and  _261
REMARK  118  A    between atoms: _261  and  _262
REMARK  119  A    between atoms: _265  and  _267
REMARK  120  A    between atoms: _267  and  _268
REMARK  121  A    between atoms: _267  and  _270
REMARK  122  A    between atoms: _270  and  _271
REMARK  123  A    between atoms: _275  and  _276
REMARK  124  A    between atoms: _281  and  _283
REMARK  125  A    between atoms: _283  and  _284
REMARK  126  A    between atoms: _286  and  _288
REMARK  127  A    between atoms: _288  and  _289
REMARK  128  A    between atoms: _288  and  _291
REMARK  129  A    between atoms: _291  and  _292
REMARK  130  A    between atoms: _297  and  _299
REMARK  131  A    between atoms: _299  and  _300
REMARK  132  A    between atoms: _299  and  _302
REMARK  133  A    between atoms: _302  and  _303
REMARK  134  A    between atoms: _303  and  _304
REMARK  135  A    between atoms: _307  and  _309
REMARK  136  A    between atoms: _309  and  _310
REMARK  137  A    between atoms: _309  and  _312
REMARK  138  A    between atoms: _312  and  _313
REMARK  139  A    between atoms: _319  and  _321
REMARK  140  A    between atoms: _321  and  _322
REMARK  141  A    between atoms: _321  and  _324
REMARK  142  A    between atoms: _324  and  _325
REMARK  143  A    between atoms: _325  and  _326
REMARK  144  A    between atoms: _326  and  _327
REMARK  145  A    between atoms: _336  and  _338
REMARK  146  A    between atoms: _338  and  _339
REMARK  147  A    between atoms: _338  and  _341
REMARK  148  A    between atoms: _344  and  _346
REMARK  149  A    between atoms: _346  and  _347
REMARK  150  A    between atoms: _346  and  _349
REMARK  151  A    between atoms: _349  and  _350
REMARK  152  A    between atoms: _353  and  _355
REMARK  153  A    between atoms: _355  and  _356
REMARK  154  A    between atoms: _355  and  _358
REMARK  155  A    between atoms: _358  and  _359
REMARK  156  A    between atoms: _362  and  _364
REMARK  157  A    between atoms: _364  and  _365
REMARK  158  A    between atoms: _364  and  _367
REMARK  159  A    between atoms: _367  and  _368
REMARK  160  A    between atoms: _368  and  _369
REMARK  161  A    between atoms: _371  and  _373
REMARK  162  A    between atoms: _373  and  _374
REMARK  163  A    between atoms: _373  and  _376
REMARK  164  A    between atoms: _376  and  _377
REMARK  165  A    between atoms: _377  and  _378
REMARK  166  A    between atoms: _383  and  _385
REMARK  167  A    between atoms: _385  and  _386
REMARK  168  A    between atoms: _385  and  _388
REMARK  169  A    between atoms: _388  and  _389
REMARK  170  A    between atoms: _392  and  _394
REMARK  171  A    between atoms: _394  and  _395
REMARK  172  A    between atoms: _394  and  _397
REMARK  173  A    between atoms: _397  and  _398
REMARK  174  A    between atoms: _403  and  _405
REMARK  175  A    between atoms: _405  and  _406
REMARK  176  A    between atoms: _405  and  _408
REMARK  177  A    between atoms: _408  and  _409
REMARK  178  A    between atoms: _409  and  _410
REMARK  179  A    between atoms: _410  and  _411
REMARK  180  A    between atoms: _411  and  _412
REMARK  181  A    between atoms: _416  and  _418
REMARK  182  A    between atoms: _418  and  _419
REMARK  183  A    between atoms: _418  and  _421
REMARK  184  A    between atoms: _421  and  _422
REMARK  185  A    between atoms: _425  and  _427
REMARK  186  A    between atoms: _427  and  _428
REMARK  187  A    between atoms: _427  and  _430
REMARK  188  A    between atoms: _430  and  _431
REMARK  189  A    between atoms: _434  and  _436
REMARK  190  A    between atoms: _436  and  _437
REMARK  191  A    between atoms: _436  and  _439
REMARK  192  A    between atoms: _439  and  _440
REMARK  193  A    between atoms: _440  and  _441
REMARK  194  A    between atoms: _441  and  _442
REMARK  195  A    between atoms: _451  and  _453
REMARK  196  A    between atoms: _453  and  _454
REMARK  197  A    between atoms: _453  and  _456
REMARK  198  A    between atoms: _456  and  _457
REMARK  199  A    between atoms: _460  and  _462
REMARK  200  A    between atoms: _462  and  _463
REMARK  201  A    between atoms: _462  and  _465
REMARK  202  A    between atoms: _465  and  _466
REMARK  203  A    between atoms: _469  and  _471
REMARK  204  A    between atoms: _471  and  _472
REMARK  205  A    between atoms: _471  and  _474
REMARK  206  A    between atoms: _474  and  _475
REMARK  207  A    between atoms: _477  and  _479
REMARK  208  A    between atoms: _479  and  _480
REMARK  209  A    between atoms: _483  and  _485
REMARK  210  A    between atoms: _485  and  _486
REMARK  211  A    between atoms: _485  and  _488
REMARK  212  A    between atoms: _488  and  _489
REMARK  213  A    between atoms: _494  and  _496
REMARK  214  A    between atoms: _496  and  _497
REMARK  215  A    between atoms: _496  and  _499
REMARK  216  A    between atoms: _499  and  _500
REMARK  217  A    between atoms: _503  and  _505
REMARK  218  A    between atoms: _505  and  _506
REMARK  219  A    between atoms: _508  and  _510
REMARK  220  A    between atoms: _510  and  _511
REMARK  221  A    between atoms: _510  and  _513
REMARK  222  A    between atoms: _513  and  _514
REMARK  223  A    between atoms: _514  and  _515
REMARK  224  A    between atoms: _518  and  _520
REMARK  225  A    between atoms: _520  and  _521
REMARK  226  A    between atoms: _520  and  _523
REMARK  227  A    between atoms: _523  and  _524
REMARK  228  A    between atoms: _527  and  _529
REMARK  229  A    between atoms: _529  and  _530
REMARK  230  A    between atoms: _529  and  _532
REMARK  231  A    between atoms: _532  and  _533
REMARK  232  A    between atoms: _533  and  _534
REMARK  233  A    between atoms: _534  and  _535
REMARK                            x       y       z     vdW  Elec       q    Type
REMARK                         _______ _______ _______ _____ _____    ______ ____
ROOT
ATOM      1  O   HOH     1      -6.299  24.820   6.970  0.00  0.00    +0.000 OA
ENDROOT
TORSDOF 0
REMARK  Name = ../refined-set-2016/4ncn/4ncn_pocket.pdb
REMARK  233 active torsions:
REMARK  status: ('A' for Active; 'I' for Inactive)
REMARK    1  A    between atoms: _1  and  _3
REMARK    2  A    between atoms: _3  and  _4
REMARK    3  A    between atoms: _3  and  _6
REMARK    4  A    between atoms: _6  and  _7
REMARK    5  A    between atoms: _10  and  _12
REMARK    6  A    between atoms: _12  and  _13
REMARK    7  A    between atoms: _12  and  _15
REMARK    8  A    between atoms: _15  and  _16
REMARK    9  A    between atoms: _19  and  _21
REMARK   10  A    between atoms: _21  and  _22
REMARK   11  A    between atoms: _24  and  _26
REMARK   12  A    between atoms: _26  and  _27
REMARK   13  A    between atoms: _26  and  _29
REMARK   14  A    between atoms: _29  and  _30
REMARK   15  A    between atoms: _35  and  _37
REMARK   16  A    between atoms: _37  and  _38
REMARK   17  A    between atoms: _37  and  _40
REMARK   18  A    between atoms: _43  and  _45
REMARK   19  A    between atoms: _45  and  _46
REMARK   20  A    between atoms: _45  and  _48
REMARK   21  A    between atoms: _48  and  _49
REMARK   22  A    between atoms: _52  and  _54
REMARK   23  A    between atoms: _54  and  _55
REMARK   24  A    between atoms: _54  and  _57
REMARK   25  A    between atoms: _57  and  _58
REMARK   26  A    between atoms: _61  and  _63
REMARK   27  A    between atoms: _63  and  _64
REMARK   28  A    between atoms: _66  and  _68
REMARK   29  A    between atoms: _68  and  _69
REMARK   30  A    between atoms: _68  and  _71
REMARK   31  A    between atoms: _71  and  _72
REMARK   32  A    between atoms: _72  and  _73
REMARK   33  A    between atoms: _73  and  _74
REMARK   34  A    between atoms: _74  and  _75
REMARK   35  A    between atoms: _79  and  _81
REMARK   36  A    between atoms: _81  and  _82
REMARK   37  A    between atoms: _81  and  _84
REMARK   38  A    between atoms: _84  and  _85
REMARK   39  A    between atoms: _88  and  _90
REMARK   40  A    between atoms: _90  and  _91
REMARK   41  A    between atoms: _90  and  _93
REMARK   42  A    between atoms: _93  and  _94
REMARK   43  A    between atoms: _94  and  _95
REMARK   44  A    between atoms: _95  and  _96
REMARK   45  A    between atoms: _96  and  _97
REMARK   46  A    between atoms: _101  and  _103
REMARK   47  A    between atoms: _103  and  _104
REMARK   48  A    between atoms: _103  and  _106
REMARK   49  A    between atoms: _106  and  _107
REMARK   50  A    between atoms: _110  and  _112
REMARK   51  A    between atoms: _112  and  _113
REMARK   52  A    between atoms: _112  and  _115
REMARK   53  A    between atoms: _115  and  _116
REMARK   54  A    between atoms: _119  and  _121
REMARK   55  A    between atoms: _121  and  _122
REMARK   56  A    between atoms: _121  and  _124
REMARK   57  A    between atoms: _124  and  _125
REMARK   58  A    between atoms: _128  and  _130
REMARK   59  A    between atoms: _130  and  _131
REMARK   60  A    between atoms: _130  and  _133
REMARK   61  A    between atoms: _133  and  _134
REMARK   62  A    between atoms: _134  and  _135
REMARK   63  A    between atoms: _135  and  _136
REMARK   64  A    between atoms: _136  and  _137
REMARK   65  A    between atoms: _141  and  _143
REMARK   66  A    between atoms: _143  and  _144
REMARK   67  A    between atoms: _143  and  _146
REMARK   68  A    between atoms: _146  and  _147
REMARK   69  A    between atoms: _147  and  _148
REMARK   70  A    between atoms: _148  and  _149
REMARK   71  A    between atoms: _158  and  _160
REMARK   72  A    between atoms: _160  and  _161
REMARK   73  A    between atoms: _160  and  _163
REMARK   74  A    between atoms: _166  and  _168
REMARK   75  A    between atoms: _168  and  _169
REMARK   76  A    between atoms: _168  and  _171
REMARK   77  A    between atoms: _171  and  _172
REMARK   78  A    between atoms: _172  and  _173
REMARK   79  A    between atoms: _178  and  _180
REMARK   80  A    between atoms: _180  and  _181
REMARK   81  A    between atoms: _180  and  _183
REMARK   82  A    between atoms: _183  and  _184
REMARK   83  A    between atoms: _184  and  _185
REMARK   84  A    between atoms: _188  and  _190
REMARK   85  A    between atoms: _190  and  _191
REMARK   86  A    between atoms: _190  and  _193
REMARK   87  A    between atoms: _193  and  _194
REMARK   88  A    between atoms: _194  and  _195
REMARK   89  A    between atoms: _198  and  _200
REMARK   90  A    between atoms: _200  and  _201
REMARK   91  A    between atoms: _204  and  _206
REMARK   92  A    between atoms: _206  and  _207
REMARK   93  A    between atoms: _209  and  _211
REMARK   94  A    between atoms: _211  and  _212
REMARK   95  A    between atoms: _212  and  _213
REMARK   96  A    between atoms: _212  and  _214
REMARK   97  A    between atoms: _214  and  _216
REMARK   98  A    between atoms: _216  and  _217
REMARK   99  A    between atoms: _216  and  _219
REMARK  100  A    between atoms: _219  and  _220
REMARK  101  A    between atoms: _223  and  _225
REMARK  102  A    between atoms: _225  and  _226
REMARK  103  A    between atoms: _225  and  _228
REMARK  104  A    between atoms: _228  and  _229
REMARK  105  A    between atoms: _232  and  _234
REMARK  106  A    between atoms: _234  and  _235
REMARK  107  A    between atoms: _234  and  _237
REMARK  108  A    between atoms: _237  and  _238
REMARK  109  A    between atoms: _238  and  _239
REMARK  110  A    between atoms: _244  and  _246
REMARK  111  A    between atoms: _246  and  _247
REMARK  112  A    between atoms: _246  and  _249
REMARK  113  A    between atoms: _249  and  _250
REMARK  114  A    between atoms: _250  and  _251
REMARK  115  A    between atoms: _256  and  _258
REMARK  116  A    between atoms: _258  and  _259
REMARK  117  A    between atoms: _258  and  _261
REMARK  118  A    between atoms: _261  and  _262
REMARK  119  A    between atoms: _265  and  _267
REMARK  120  A    between atoms: _267  and  _268
REMARK  121  A    between atoms: _267  and  _270
REMARK  122  A    between atoms: _270  and  _271
REMARK  123  A    between atoms: _275  and  _276
REMARK  124  A    between atoms: _281  and  _283
REMARK  125  A    between atoms: _283  and  _284
REMARK  126  A    between atoms: _286  and  _288
REMARK  127  A    between atoms: _288  and  _289
REMARK  128  A    between atoms: _288  and  _291
REMARK  129  A    between atoms: _291  and  _292
REMARK  130  A    between atoms: _297  and  _299
REMARK  131  A    between atoms: _299  and  _300
REMARK  132  A    between atoms: _299  and  _302
REMARK  133  A    between atoms: _302  and  _303
REMARK  134  A    between atoms: _303  and  _304
REMARK  135  A    between atoms: _307  and  _309
REMARK  136  A    between atoms: _309  and  _310
REMARK  137  A    between atoms: _309  and  _312
REMARK  138  A    between atoms: _312  and  _313
REMARK  139  A    between atoms: _319  and  _321
REMARK  140  A    between atoms: _321  and  _322
REMARK  141  A    between atoms: _321  and  _324
REMARK  142  A    between atoms: _324  and  _325
REMARK  143  A    between atoms: _325  and  _326
REMARK  144  A    between atoms: _326  and  _327
REMARK  145  A    between atoms: _336  and  _338
REMARK  146  A    between atoms: _338  and  _339
REMARK  147  A    between atoms: _338  and  _341
REMARK  148  A    between atoms: _344  and  _346
REMARK  149  A    between atoms: _346  and  _347
REMARK  150  A    between atoms: _346  and  _349
REMARK  151  A    between atoms: _349  and  _350
REMARK  152  A    between atoms: _353  and  _355
REMARK  153  A    between atoms: _355  and  _356
REMARK  154  A    between atoms: _355  and  _358
REMARK  155  A    between atoms: _358  and  _359
REMARK  156  A    between atoms: _362  and  _364
REMARK  157  A    between atoms: _364  and  _365
REMARK  158  A    between atoms: _364  and  _367
REMARK  159  A    between atoms: _367  and  _368
REMARK  160  A    between atoms: _368  and  _369
REMARK  161  A    between atoms: _371  and  _373
REMARK  162  A    between atoms: _373  and  _374
REMARK  163  A    between atoms: _373  and  _376
REMARK  164  A    between atoms: _376  and  _377
REMARK  165  A    between atoms: _377  and  _378
REMARK  166  A    between atoms: _383  and  _385
REMARK  167  A    between atoms: _385  and  _386
REMARK  168  A    between atoms: _385  and  _388
REMARK  169  A    between atoms: _388  and  _389
REMARK  170  A    between atoms: _392  and  _394
REMARK  171  A    between atoms: _394  and  _395
REMARK  172  A    between atoms: _394  and  _397
REMARK  173  A    between atoms: _397  and  _398
REMARK  174  A    between atoms: _403  and  _405
REMARK  175  A    between atoms: _405  and  _406
REMARK  176  A    between atoms: _405  and  _408
REMARK  177  A    between atoms: _408  and  _409
REMARK  178  A    between atoms: _409  and  _410
REMARK  179  A    between atoms: _410  and  _411
REMARK  180  A    between atoms: _411  and  _412
REMARK  181  A    between atoms: _416  and  _418
REMARK  182  A    between atoms: _418  and  _419
REMARK  183  A    between atoms: _418  and  _421
REMARK  184  A    between atoms: _421  and  _422
REMARK  185  A    between atoms: _425  and  _427
REMARK  186  A    between atoms: _427  and  _428
REMARK  187  A    between atoms: _427  and  _430
REMARK  188  A    between atoms: _430  and  _431
REMARK  189  A    between atoms: _434  and  _436
REMARK  190  A    between atoms: _436  and  _437
REMARK  191  A    between atoms: _436  and  _439
REMARK  192  A    between atoms: _439  and  _440
REMARK  193  A    between atoms: _440  and  _441
REMARK  194  A    between atoms: _441  and  _442
REMARK  195  A    between atoms: _451  and  _453
REMARK  196  A    between atoms: _453  and  _454
REMARK  197  A    between atoms: _453  and  _456
REMARK  198  A    between atoms: _456  and  _457
REMARK  199  A    between atoms: _460  and  _462
REMARK  200  A    between atoms: _462  and  _463
REMARK  201  A    between atoms: _462  and  _465
REMARK  202  A    between atoms: _465  and  _466
REMARK  203  A    between atoms: _469  and  _471
REMARK  204  A    between atoms: _471  and  _472
REMARK  205  A    between atoms: _471  and  _474
REMARK  206  A    between atoms: _474  and  _475
REMARK  207  A    between atoms: _477  and  _479
REMARK  208  A    between atoms: _479  and  _480
REMARK  209  A    between atoms: _483  and  _485
REMARK  210  A    between atoms: _485  and  _486
REMARK  211  A    between atoms: _485  and  _488
REMARK  212  A    between atoms: _488  and  _489
REMARK  213  A    between atoms: _494  and  _496
REMARK  214  A    between atoms: _496  and  _497
REMARK  215  A    between atoms: _496  and  _499
REMARK  216  A    between atoms: _499  and  _500
REMARK  217  A    between atoms: _503  and  _505
REMARK  218  A    between atoms: _505  and  _506
REMARK  219  A    between atoms: _508  and  _510
REMARK  220  A    between atoms: _510  and  _511
REMARK  221  A    between atoms: _510  and  _513
REMARK  222  A    between atoms: _513  and  _514
REMARK  223  A    between atoms: _514  and  _515
REMARK  224  A    between atoms: _518  and  _520
REMARK  225  A    between atoms: _520  and  _521
REMARK  226  A    between atoms: _520  and  _523
REMARK  227  A    between atoms: _523  and  _524
REMARK  228  A    between atoms: _527  and  _529
REMARK  229  A    between atoms: _529  and  _530
REMARK  230  A    between atoms: _529  and  _532
REMARK  231  A    between atoms: _532  and  _533
REMARK  232  A    between atoms: _533  and  _534
REMARK  233  A    between atoms: _534  and  _535
REMARK                            x       y       z     vdW  Elec       q    Type
REMARK                         _______ _______ _______ _____ _____    ______ ____
ROOT
ATOM      1  O   HOH     1     -15.431  30.074   8.681  0.00  0.00    +0.000 OA
ENDROOT
TORSDOF 0
REMARK  Name = ../refined-set-2016/4ncn/4ncn_pocket.pdb
REMARK  233 active torsions:
REMARK  status: ('A' for Active; 'I' for Inactive)
REMARK    1  A    between atoms: _1  and  _3
REMARK    2  A    between atoms: _3  and  _4
REMARK    3  A    between atoms: _3  and  _6
REMARK    4  A    between atoms: _6  and  _7
REMARK    5  A    between atoms: _10  and  _12
REMARK    6  A    between atoms: _12  and  _13
REMARK    7  A    between atoms: _12  and  _15
REMARK    8  A    between atoms: _15  and  _16
REMARK    9  A    between atoms: _19  and  _21
REMARK   10  A    between atoms: _21  and  _22
REMARK   11  A    between atoms: _24  and  _26
REMARK   12  A    between atoms: _26  and  _27
REMARK   13  A    between atoms: _26  and  _29
REMARK   14  A    between atoms: _29  and  _30
REMARK   15  A    between atoms: _35  and  _37
REMARK   16  A    between atoms: _37  and  _38
REMARK   17  A    between atoms: _37  and  _40
REMARK   18  A    between atoms: _43  and  _45
REMARK   19  A    between atoms: _45  and  _46
REMARK   20  A    between atoms: _45  and  _48
REMARK   21  A    between atoms: _48  and  _49
REMARK   22  A    between atoms: _52  and  _54
REMARK   23  A    between atoms: _54  and  _55
REMARK   24  A    between atoms: _54  and  _57
REMARK   25  A    between atoms: _57  and  _58
REMARK   26  A    between atoms: _61  and  _63
REMARK   27  A    between atoms: _63  and  _64
REMARK   28  A    between atoms: _66  and  _68
REMARK   29  A    between atoms: _68  and  _69
REMARK   30  A    between atoms: _68  and  _71
REMARK   31  A    between atoms: _71  and  _72
REMARK   32  A    between atoms: _72  and  _73
REMARK   33  A    between atoms: _73  and  _74
REMARK   34  A    between atoms: _74  and  _75
REMARK   35  A    between atoms: _79  and  _81
REMARK   36  A    between atoms: _81  and  _82
REMARK   37  A    between atoms: _81  and  _84
REMARK   38  A    between atoms: _84  and  _85
REMARK   39  A    between atoms: _88  and  _90
REMARK   40  A    between atoms: _90  and  _91
REMARK   41  A    between atoms: _90  and  _93
REMARK   42  A    between atoms: _93  and  _94
REMARK   43  A    between atoms: _94  and  _95
REMARK   44  A    between atoms: _95  and  _96
REMARK   45  A    between atoms: _96  and  _97
REMARK   46  A    between atoms: _101  and  _103
REMARK   47  A    between atoms: _103  and  _104
REMARK   48  A    between atoms: _103  and  _106
REMARK   49  A    between atoms: _106  and  _107
REMARK   50  A    between atoms: _110  and  _112
REMARK   51  A    between atoms: _112  and  _113
REMARK   52  A    between atoms: _112  and  _115
REMARK   53  A    between atoms: _115  and  _116
REMARK   54  A    between atoms: _119  and  _121
REMARK   55  A    between atoms: _121  and  _122
REMARK   56  A    between atoms: _121  and  _124
REMARK   57  A    between atoms: _124  and  _125
REMARK   58  A    between atoms: _128  and  _130
REMARK   59  A    between atoms: _130  and  _131
REMARK   60  A    between atoms: _130  and  _133
REMARK   61  A    between atoms: _133  and  _134
REMARK   62  A    between atoms: _134  and  _135
REMARK   63  A    between atoms: _135  and  _136
REMARK   64  A    between atoms: _136  and  _137
REMARK   65  A    between atoms: _141  and  _143
REMARK   66  A    between atoms: _143  and  _144
REMARK   67  A    between atoms: _143  and  _146
REMARK   68  A    between atoms: _146  and  _147
REMARK   69  A    between atoms: _147  and  _148
REMARK   70  A    between atoms: _148  and  _149
REMARK   71  A    between atoms: _158  and  _160
REMARK   72  A    between atoms: _160  and  _161
REMARK   73  A    between atoms: _160  and  _163
REMARK   74  A    between atoms: _166  and  _168
REMARK   75  A    between atoms: _168  and  _169
REMARK   76  A    between atoms: _168  and  _171
REMARK   77  A    between atoms: _171  and  _172
REMARK   78  A    between atoms: _172  and  _173
REMARK   79  A    between atoms: _178  and  _180
REMARK   80  A    between atoms: _180  and  _181
REMARK   81  A    between atoms: _180  and  _183
REMARK   82  A    between atoms: _183  and  _184
REMARK   83  A    between atoms: _184  and  _185
REMARK   84  A    between atoms: _188  and  _190
REMARK   85  A    between atoms: _190  and  _191
REMARK   86  A    between atoms: _190  and  _193
REMARK   87  A    between atoms: _193  and  _194
REMARK   88  A    between atoms: _194  and  _195
REMARK   89  A    between atoms: _198  and  _200
REMARK   90  A    between atoms: _200  and  _201
REMARK   91  A    between atoms: _204  and  _206
REMARK   92  A    between atoms: _206  and  _207
REMARK   93  A    between atoms: _209  and  _211
REMARK   94  A    between atoms: _211  and  _212
REMARK   95  A    between atoms: _212  and  _213
REMARK   96  A    between atoms: _212  and  _214
REMARK   97  A    between atoms: _214  and  _216
REMARK   98  A    between atoms: _216  and  _217
REMARK   99  A    between atoms: _216  and  _219
REMARK  100  A    between atoms: _219  and  _220
REMARK  101  A    between atoms: _223  and  _225
REMARK  102  A    between atoms: _225  and  _226
REMARK  103  A    between atoms: _225  and  _228
REMARK  104  A    between atoms: _228  and  _229
REMARK  105  A    between atoms: _232  and  _234
REMARK  106  A    between atoms: _234  and  _235
REMARK  107  A    between atoms: _234  and  _237
REMARK  108  A    between atoms: _237  and  _238
REMARK  109  A    between atoms: _238  and  _239
REMARK  110  A    between atoms: _244  and  _246
REMARK  111  A    between atoms: _246  and  _247
REMARK  112  A    between atoms: _246  and  _249
REMARK  113  A    between atoms: _249  and  _250
REMARK  114  A    between atoms: _250  and  _251
REMARK  115  A    between atoms: _256  and  _258
REMARK  116  A    between atoms: _258  and  _259
REMARK  117  A    between atoms: _258  and  _261
REMARK  118  A    between atoms: _261  and  _262
REMARK  119  A    between atoms: _265  and  _267
REMARK  120  A    between atoms: _267  and  _268
REMARK  121  A    between atoms: _267  and  _270
REMARK  122  A    between atoms: _270  and  _271
REMARK  123  A    between atoms: _275  and  _276
REMARK  124  A    between atoms: _281  and  _283
REMARK  125  A    between atoms: _283  and  _284
REMARK  126  A    between atoms: _286  and  _288
REMARK  127  A    between atoms: _288  and  _289
REMARK  128  A    between atoms: _288  and  _291
REMARK  129  A    between atoms: _291  and  _292
REMARK  130  A    between atoms: _297  and  _299
REMARK  131  A    between atoms: _299  and  _300
REMARK  132  A    between atoms: _299  and  _302
REMARK  133  A    between atoms: _302  and  _303
REMARK  134  A    between atoms: _303  and  _304
REMARK  135  A    between atoms: _307  and  _309
REMARK  136  A    between atoms: _309  and  _310
REMARK  137  A    between atoms: _309  and  _312
REMARK  138  A    between atoms: _312  and  _313
REMARK  139  A    between atoms: _319  and  _321
REMARK  140  A    between atoms: _321  and  _322
REMARK  141  A    between atoms: _321  and  _324
REMARK  142  A    between atoms: _324  and  _325
REMARK  143  A    between atoms: _325  and  _326
REMARK  144  A    between atoms: _326  and  _327
REMARK  145  A    between atoms: _336  and  _338
REMARK  146  A    between atoms: _338  and  _339
REMARK  147  A    between atoms: _338  and  _341
REMARK  148  A    between atoms: _344  and  _346
REMARK  149  A    between atoms: _346  and  _347
REMARK  150  A    between atoms: _346  and  _349
REMARK  151  A    between atoms: _349  and  _350
REMARK  152  A    between atoms: _353  and  _355
REMARK  153  A    between atoms: _355  and  _356
REMARK  154  A    between atoms: _355  and  _358
REMARK  155  A    between atoms: _358  and  _359
REMARK  156  A    between atoms: _362  and  _364
REMARK  157  A    between atoms: _364  and  _365
REMARK  158  A    between atoms: _364  and  _367
REMARK  159  A    between atoms: _367  and  _368
REMARK  160  A    between atoms: _368  and  _369
REMARK  161  A    between atoms: _371  and  _373
REMARK  162  A    between atoms: _373  and  _374
REMARK  163  A    between atoms: _373  and  _376
REMARK  164  A    between atoms: _376  and  _377
REMARK  165  A    between atoms: _377  and  _378
REMARK  166  A    between atoms: _383  and  _385
REMARK  167  A    between atoms: _385  and  _386
REMARK  168  A    between atoms: _385  and  _388
REMARK  169  A    between atoms: _388  and  _389
REMARK  170  A    between atoms: _392  and  _394
REMARK  171  A    between atoms: _394  and  _395
REMARK  172  A    between atoms: _394  and  _397
REMARK  173  A    between atoms: _397  and  _398
REMARK  174  A    between atoms: _403  and  _405
REMARK  175  A    between atoms: _405  and  _406
REMARK  176  A    between atoms: _405  and  _408
REMARK  177  A    between atoms: _408  and  _409
REMARK  178  A    between atoms: _409  and  _410
REMARK  179  A    between atoms: _410  and  _411
REMARK  180  A    between atoms: _411  and  _412
REMARK  181  A    between atoms: _416  and  _418
REMARK  182  A    between atoms: _418  and  _419
REMARK  183  A    between atoms: _418  and  _421
REMARK  184  A    between atoms: _421  and  _422
REMARK  185  A    between atoms: _425  and  _427
REMARK  186  A    between atoms: _427  and  _428
REMARK  187  A    between atoms: _427  and  _430
REMARK  188  A    between atoms: _430  and  _431
REMARK  189  A    between atoms: _434  and  _436
REMARK  190  A    between atoms: _436  and  _437
REMARK  191  A    between atoms: _436  and  _439
REMARK  192  A    between atoms: _439  and  _440
REMARK  193  A    between atoms: _440  and  _441
REMARK  194  A    between atoms: _441  and  _442
REMARK  195  A    between atoms: _451  and  _453
REMARK  196  A    between atoms: _453  and  _454
REMARK  197  A    between atoms: _453  and  _456
REMARK  198  A    between atoms: _456  and  _457
REMARK  199  A    between atoms: _460  and  _462
REMARK  200  A    between atoms: _462  and  _463
REMARK  201  A    between atoms: _462  and  _465
REMARK  202  A    between atoms: _465  and  _466
REMARK  203  A    between atoms: _469  and  _471
REMARK  204  A    between atoms: _471  and  _472
REMARK  205  A    between atoms: _471  and  _474
REMARK  206  A    between atoms: _474  and  _475
REMARK  207  A    between atoms: _477  and  _479
REMARK  208  A    between atoms: _479  and  _480
REMARK  209  A    between atoms: _483  and  _485
REMARK  210  A    between atoms: _485  and  _486
REMARK  211  A    between atoms: _485  and  _488
REMARK  212  A    between atoms: _488  and  _489
REMARK  213  A    between atoms: _494  and  _496
REMARK  214  A    between atoms: _496  and  _497
REMARK  215  A    between atoms: _496  and  _499
REMARK  216  A    between atoms: _499  and  _500
REMARK  217  A    between atoms: _503  and  _505
REMARK  218  A    between atoms: _505  and  _506
REMARK  219  A    between atoms: _508  and  _510
REMARK  220  A    between atoms: _510  and  _511
REMARK  221  A    between atoms: _510  and  _513
REMARK  222  A    between atoms: _513  and  _514
REMARK  223  A    between atoms: _514  and  _515
REMARK  224  A    between atoms: _518  and  _520
REMARK  225  A    between atoms: _520  and  _521
REMARK  226  A    between atoms: _520  and  _523
REMARK  227  A    between atoms: _523  and  _524
REMARK  228  A    between atoms: _527  and  _529
REMARK  229  A    between atoms: _529  and  _530
REMARK  230  A    between atoms: _529  and  _532
REMARK  231  A    between atoms: _532  and  _533
REMARK  232  A    between atoms: _533  and  _534
REMARK  233  A    between atoms: _534  and  _535
REMARK                            x       y       z     vdW  Elec       q    Type
REMARK                         _______ _______ _______ _____ _____    ______ ____
ROOT
ATOM      1  O   HOH     1     -13.446  28.515   6.686  0.00  0.00    +0.000 OA
ENDROOT
TORSDOF 0
REMARK  Name = ../refined-set-2016/4ncn/4ncn_pocket.pdb
REMARK  233 active torsions:
REMARK  status: ('A' for Active; 'I' for Inactive)
REMARK    1  A    between atoms: _1  and  _3
REMARK    2  A    between atoms: _3  and  _4
REMARK    3  A    between atoms: _3  and  _6
REMARK    4  A    between atoms: _6  and  _7
REMARK    5  A    between atoms: _10  and  _12
REMARK    6  A    between atoms: _12  and  _13
REMARK    7  A    between atoms: _12  and  _15
REMARK    8  A    between atoms: _15  and  _16
REMARK    9  A    between atoms: _19  and  _21
REMARK   10  A    between atoms: _21  and  _22
REMARK   11  A    between atoms: _24  and  _26
REMARK   12  A    between atoms: _26  and  _27
REMARK   13  A    between atoms: _26  and  _29
REMARK   14  A    between atoms: _29  and  _30
REMARK   15  A    between atoms: _35  and  _37
REMARK   16  A    between atoms: _37  and  _38
REMARK   17  A    between atoms: _37  and  _40
REMARK   18  A    between atoms: _43  and  _45
REMARK   19  A    between atoms: _45  and  _46
REMARK   20  A    between atoms: _45  and  _48
REMARK   21  A    between atoms: _48  and  _49
REMARK   22  A    between atoms: _52  and  _54
REMARK   23  A    between atoms: _54  and  _55
REMARK   24  A    between atoms: _54  and  _57
REMARK   25  A    between atoms: _57  and  _58
REMARK   26  A    between atoms: _61  and  _63
REMARK   27  A    between atoms: _63  and  _64
REMARK   28  A    between atoms: _66  and  _68
REMARK   29  A    between atoms: _68  and  _69
REMARK   30  A    between atoms: _68  and  _71
REMARK   31  A    between atoms: _71  and  _72
REMARK   32  A    between atoms: _72  and  _73
REMARK   33  A    between atoms: _73  and  _74
REMARK   34  A    between atoms: _74  and  _75
REMARK   35  A    between atoms: _79  and  _81
REMARK   36  A    between atoms: _81  and  _82
REMARK   37  A    between atoms: _81  and  _84
REMARK   38  A    between atoms: _84  and  _85
REMARK   39  A    between atoms: _88  and  _90
REMARK   40  A    between atoms: _90  and  _91
REMARK   41  A    between atoms: _90  and  _93
REMARK   42  A    between atoms: _93  and  _94
REMARK   43  A    between atoms: _94  and  _95
REMARK   44  A    between atoms: _95  and  _96
REMARK   45  A    between atoms: _96  and  _97
REMARK   46  A    between atoms: _101  and  _103
REMARK   47  A    between atoms: _103  and  _104
REMARK   48  A    between atoms: _103  and  _106
REMARK   49  A    between atoms: _106  and  _107
REMARK   50  A    between atoms: _110  and  _112
REMARK   51  A    between atoms: _112  and  _113
REMARK   52  A    between atoms: _112  and  _115
REMARK   53  A    between atoms: _115  and  _116
REMARK   54  A    between atoms: _119  and  _121
REMARK   55  A    between atoms: _121  and  _122
REMARK   56  A    between atoms: _121  and  _124
REMARK   57  A    between atoms: _124  and  _125
REMARK   58  A    between atoms: _128  and  _130
REMARK   59  A    between atoms: _130  and  _131
REMARK   60  A    between atoms: _130  and  _133
REMARK   61  A    between atoms: _133  and  _134
REMARK   62  A    between atoms: _134  and  _135
REMARK   63  A    between atoms: _135  and  _136
REMARK   64  A    between atoms: _136  and  _137
REMARK   65  A    between atoms: _141  and  _143
REMARK   66  A    between atoms: _143  and  _144
REMARK   67  A    between atoms: _143  and  _146
REMARK   68  A    between atoms: _146  and  _147
REMARK   69  A    between atoms: _147  and  _148
REMARK   70  A    between atoms: _148  and  _149
REMARK   71  A    between atoms: _158  and  _160
REMARK   72  A    between atoms: _160  and  _161
REMARK   73  A    between atoms: _160  and  _163
REMARK   74  A    between atoms: _166  and  _168
REMARK   75  A    between atoms: _168  and  _169
REMARK   76  A    between atoms: _168  and  _171
REMARK   77  A    between atoms: _171  and  _172
REMARK   78  A    between atoms: _172  and  _173
REMARK   79  A    between atoms: _178  and  _180
REMARK   80  A    between atoms: _180  and  _181
REMARK   81  A    between atoms: _180  and  _183
REMARK   82  A    between atoms: _183  and  _184
REMARK   83  A    between atoms: _184  and  _185
REMARK   84  A    between atoms: _188  and  _190
REMARK   85  A    between atoms: _190  and  _191
REMARK   86  A    between atoms: _190  and  _193
REMARK   87  A    between atoms: _193  and  _194
REMARK   88  A    between atoms: _194  and  _195
REMARK   89  A    between atoms: _198  and  _200
REMARK   90  A    between atoms: _200  and  _201
REMARK   91  A    between atoms: _204  and  _206
REMARK   92  A    between atoms: _206  and  _207
REMARK   93  A    between atoms: _209  and  _211
REMARK   94  A    between atoms: _211  and  _212
REMARK   95  A    between atoms: _212  and  _213
REMARK   96  A    between atoms: _212  and  _214
REMARK   97  A    between atoms: _214  and  _216
REMARK   98  A    between atoms: _216  and  _217
REMARK   99  A    between atoms: _216  and  _219
REMARK  100  A    between atoms: _219  and  _220
REMARK  101  A    between atoms: _223  and  _225
REMARK  102  A    between atoms: _225  and  _226
REMARK  103  A    between atoms: _225  and  _228
REMARK  104  A    between atoms: _228  and  _229
REMARK  105  A    between atoms: _232  and  _234
REMARK  106  A    between atoms: _234  and  _235
REMARK  107  A    between atoms: _234  and  _237
REMARK  108  A    between atoms: _237  and  _238
REMARK  109  A    between atoms: _238  and  _239
REMARK  110  A    between atoms: _244  and  _246
REMARK  111  A    between atoms: _246  and  _247
REMARK  112  A    between atoms: _246  and  _249
REMARK  113  A    between atoms: _249  and  _250
REMARK  114  A    between atoms: _250  and  _251
REMARK  115  A    between atoms: _256  and  _258
REMARK  116  A    between atoms: _258  and  _259
REMARK  117  A    between atoms: _258  and  _261
REMARK  118  A    between atoms: _261  and  _262
REMARK  119  A    between atoms: _265  and  _267
REMARK  120  A    between atoms: _267  and  _268
REMARK  121  A    between atoms: _267  and  _270
REMARK  122  A    between atoms: _270  and  _271
REMARK  123  A    between atoms: _275  and  _276
REMARK  124  A    between atoms: _281  and  _283
REMARK  125  A    between atoms: _283  and  _284
REMARK  126  A    between atoms: _286  and  _288
REMARK  127  A    between atoms: _288  and  _289
REMARK  128  A    between atoms: _288  and  _291
REMARK  129  A    between atoms: _291  and  _292
REMARK  130  A    between atoms: _297  and  _299
REMARK  131  A    between atoms: _299  and  _300
REMARK  132  A    between atoms: _299  and  _302
REMARK  133  A    between atoms: _302  and  _303
REMARK  134  A    between atoms: _303  and  _304
REMARK  135  A    between atoms: _307  and  _309
REMARK  136  A    between atoms: _309  and  _310
REMARK  137  A    between atoms: _309  and  _312
REMARK  138  A    between atoms: _312  and  _313
REMARK  139  A    between atoms: _319  and  _321
REMARK  140  A    between atoms: _321  and  _322
REMARK  141  A    between atoms: _321  and  _324
REMARK  142  A    between atoms: _324  and  _325
REMARK  143  A    between atoms: _325  and  _326
REMARK  144  A    between atoms: _326  and  _327
REMARK  145  A    between atoms: _336  and  _338
REMARK  146  A    between atoms: _338  and  _339
REMARK  147  A    between atoms: _338  and  _341
REMARK  148  A    between atoms: _344  and  _346
REMARK  149  A    between atoms: _346  and  _347
REMARK  150  A    between atoms: _346  and  _349
REMARK  151  A    between atoms: _349  and  _350
REMARK  152  A    between atoms: _353  and  _355
REMARK  153  A    between atoms: _355  and  _356
REMARK  154  A    between atoms: _355  and  _358
REMARK  155  A    between atoms: _358  and  _359
REMARK  156  A    between atoms: _362  and  _364
REMARK  157  A    between atoms: _364  and  _365
REMARK  158  A    between atoms: _364  and  _367
REMARK  159  A    between atoms: _367  and  _368
REMARK  160  A    between atoms: _368  and  _369
REMARK  161  A    between atoms: _371  and  _373
REMARK  162  A    between atoms: _373  and  _374
REMARK  163  A    between atoms: _373  and  _376
REMARK  164  A    between atoms: _376  and  _377
REMARK  165  A    between atoms: _377  and  _378
REMARK  166  A    between atoms: _383  and  _385
REMARK  167  A    between atoms: _385  and  _386
REMARK  168  A    between atoms: _385  and  _388
REMARK  169  A    between atoms: _388  and  _389
REMARK  170  A    between atoms: _392  and  _394
REMARK  171  A    between atoms: _394  and  _395
REMARK  172  A    between atoms: _394  and  _397
REMARK  173  A    between atoms: _397  and  _398
REMARK  174  A    between atoms: _403  and  _405
REMARK  175  A    between atoms: _405  and  _406
REMARK  176  A    between atoms: _405  and  _408
REMARK  177  A    between atoms: _408  and  _409
REMARK  178  A    between atoms: _409  and  _410
REMARK  179  A    between atoms: _410  and  _411
REMARK  180  A    between atoms: _411  and  _412
REMARK  181  A    between atoms: _416  and  _418
REMARK  182  A    between atoms: _418  and  _419
REMARK  183  A    between atoms: _418  and  _421
REMARK  184  A    between atoms: _421  and  _422
REMARK  185  A    between atoms: _425  and  _427
REMARK  186  A    between atoms: _427  and  _428
REMARK  187  A    between atoms: _427  and  _430
REMARK  188  A    between atoms: _430  and  _431
REMARK  189  A    between atoms: _434  and  _436
REMARK  190  A    between atoms: _436  and  _437
REMARK  191  A    between atoms: _436  and  _439
REMARK  192  A    between atoms: _439  and  _440
REMARK  193  A    between atoms: _440  and  _441
REMARK  194  A    between atoms: _441  and  _442
REMARK  195  A    between atoms: _451  and  _453
REMARK  196  A    between atoms: _453  and  _454
REMARK  197  A    between atoms: _453  and  _456
REMARK  198  A    between atoms: _456  and  _457
REMARK  199  A    between atoms: _460  and  _462
REMARK  200  A    between atoms: _462  and  _463
REMARK  201  A    between atoms: _462  and  _465
REMARK  202  A    between atoms: _465  and  _466
REMARK  203  A    between atoms: _469  and  _471
REMARK  204  A    between atoms: _471  and  _472
REMARK  205  A    between atoms: _471  and  _474
REMARK  206  A    between atoms: _474  and  _475
REMARK  207  A    between atoms: _477  and  _479
REMARK  208  A    between atoms: _479  and  _480
REMARK  209  A    between atoms: _483  and  _485
REMARK  210  A    between atoms: _485  and  _486
REMARK  211  A    between atoms: _485  and  _488
REMARK  212  A    between atoms: _488  and  _489
REMARK  213  A    between atoms: _494  and  _496
REMARK  214  A    between atoms: _496  and  _497
REMARK  215  A    between atoms: _496  and  _499
REMARK  216  A    between atoms: _499  and  _500
REMARK  217  A    between atoms: _503  and  _505
REMARK  218  A    between atoms: _505  and  _506
REMARK  219  A    between atoms: _508  and  _510
REMARK  220  A    between atoms: _510  and  _511
REMARK  221  A    between atoms: _510  and  _513
REMARK  222  A    between atoms: _513  and  _514
REMARK  223  A    between atoms: _514  and  _515
REMARK  224  A    between atoms: _518  and  _520
REMARK  225  A    between atoms: _520  and  _521
REMARK  226  A    between atoms: _520  and  _523
REMARK  227  A    between atoms: _523  and  _524
REMARK  228  A    between atoms: _527  and  _529
REMARK  229  A    between atoms: _529  and  _530
REMARK  230  A    between atoms: _529  and  _532
REMARK  231  A    between atoms: _532  and  _533
REMARK  232  A    between atoms: _533  and  _534
REMARK  233  A    between atoms: _534  and  _535
REMARK                            x       y       z     vdW  Elec       q    Type
REMARK                         _______ _______ _______ _____ _____    ______ ____
ROOT
ATOM      1  O   HOH     1     -15.366  14.006   7.593  0.00  0.00    +0.000 OA
ENDROOT
TORSDOF 0
REMARK  Name = ../refined-set-2016/4ncn/4ncn_pocket.pdb
REMARK  233 active torsions:
REMARK  status: ('A' for Active; 'I' for Inactive)
REMARK    1  A    between atoms: _1  and  _3
REMARK    2  A    between atoms: _3  and  _4
REMARK    3  A    between atoms: _3  and  _6
REMARK    4  A    between atoms: _6  and  _7
REMARK    5  A    between atoms: _10  and  _12
REMARK    6  A    between atoms: _12  and  _13
REMARK    7  A    between atoms: _12  and  _15
REMARK    8  A    between atoms: _15  and  _16
REMARK    9  A    between atoms: _19  and  _21
REMARK   10  A    between atoms: _21  and  _22
REMARK   11  A    between atoms: _24  and  _26
REMARK   12  A    between atoms: _26  and  _27
REMARK   13  A    between atoms: _26  and  _29
REMARK   14  A    between atoms: _29  and  _30
REMARK   15  A    between atoms: _35  and  _37
REMARK   16  A    between atoms: _37  and  _38
REMARK   17  A    between atoms: _37  and  _40
REMARK   18  A    between atoms: _43  and  _45
REMARK   19  A    between atoms: _45  and  _46
REMARK   20  A    between atoms: _45  and  _48
REMARK   21  A    between atoms: _48  and  _49
REMARK   22  A    between atoms: _52  and  _54
REMARK   23  A    between atoms: _54  and  _55
REMARK   24  A    between atoms: _54  and  _57
REMARK   25  A    between atoms: _57  and  _58
REMARK   26  A    between atoms: _61  and  _63
REMARK   27  A    between atoms: _63  and  _64
REMARK   28  A    between atoms: _66  and  _68
REMARK   29  A    between atoms: _68  and  _69
REMARK   30  A    between atoms: _68  and  _71
REMARK   31  A    between atoms: _71  and  _72
REMARK   32  A    between atoms: _72  and  _73
REMARK   33  A    between atoms: _73  and  _74
REMARK   34  A    between atoms: _74  and  _75
REMARK   35  A    between atoms: _79  and  _81
REMARK   36  A    between atoms: _81  and  _82
REMARK   37  A    between atoms: _81  and  _84
REMARK   38  A    between atoms: _84  and  _85
REMARK   39  A    between atoms: _88  and  _90
REMARK   40  A    between atoms: _90  and  _91
REMARK   41  A    between atoms: _90  and  _93
REMARK   42  A    between atoms: _93  and  _94
REMARK   43  A    between atoms: _94  and  _95
REMARK   44  A    between atoms: _95  and  _96
REMARK   45  A    between atoms: _96  and  _97
REMARK   46  A    between atoms: _101  and  _103
REMARK   47  A    between atoms: _103  and  _104
REMARK   48  A    between atoms: _103  and  _106
REMARK   49  A    between atoms: _106  and  _107
REMARK   50  A    between atoms: _110  and  _112
REMARK   51  A    between atoms: _112  and  _113
REMARK   52  A    between atoms: _112  and  _115
REMARK   53  A    between atoms: _115  and  _116
REMARK   54  A    between atoms: _119  and  _121
REMARK   55  A    between atoms: _121  and  _122
REMARK   56  A    between atoms: _121  and  _124
REMARK   57  A    between atoms: _124  and  _125
REMARK   58  A    between atoms: _128  and  _130
REMARK   59  A    between atoms: _130  and  _131
REMARK   60  A    between atoms: _130  and  _133
REMARK   61  A    between atoms: _133  and  _134
REMARK   62  A    between atoms: _134  and  _135
REMARK   63  A    between atoms: _135  and  _136
REMARK   64  A    between atoms: _136  and  _137
REMARK   65  A    between atoms: _141  and  _143
REMARK   66  A    between atoms: _143  and  _144
REMARK   67  A    between atoms: _143  and  _146
REMARK   68  A    between atoms: _146  and  _147
REMARK   69  A    between atoms: _147  and  _148
REMARK   70  A    between atoms: _148  and  _149
REMARK   71  A    between atoms: _158  and  _160
REMARK   72  A    between atoms: _160  and  _161
REMARK   73  A    between atoms: _160  and  _163
REMARK   74  A    between atoms: _166  and  _168
REMARK   75  A    between atoms: _168  and  _169
REMARK   76  A    between atoms: _168  and  _171
REMARK   77  A    between atoms: _171  and  _172
REMARK   78  A    between atoms: _172  and  _173
REMARK   79  A    between atoms: _178  and  _180
REMARK   80  A    between atoms: _180  and  _181
REMARK   81  A    between atoms: _180  and  _183
REMARK   82  A    between atoms: _183  and  _184
REMARK   83  A    between atoms: _184  and  _185
REMARK   84  A    between atoms: _188  and  _190
REMARK   85  A    between atoms: _190  and  _191
REMARK   86  A    between atoms: _190  and  _193
REMARK   87  A    between atoms: _193  and  _194
REMARK   88  A    between atoms: _194  and  _195
REMARK   89  A    between atoms: _198  and  _200
REMARK   90  A    between atoms: _200  and  _201
REMARK   91  A    between atoms: _204  and  _206
REMARK   92  A    between atoms: _206  and  _207
REMARK   93  A    between atoms: _209  and  _211
REMARK   94  A    between atoms: _211  and  _212
REMARK   95  A    between atoms: _212  and  _213
REMARK   96  A    between atoms: _212  and  _214
REMARK   97  A    between atoms: _214  and  _216
REMARK   98  A    between atoms: _216  and  _217
REMARK   99  A    between atoms: _216  and  _219
REMARK  100  A    between atoms: _219  and  _220
REMARK  101  A    between atoms: _223  and  _225
REMARK  102  A    between atoms: _225  and  _226
REMARK  103  A    between atoms: _225  and  _228
REMARK  104  A    between atoms: _228  and  _229
REMARK  105  A    between atoms: _232  and  _234
REMARK  106  A    between atoms: _234  and  _235
REMARK  107  A    between atoms: _234  and  _237
REMARK  108  A    between atoms: _237  and  _238
REMARK  109  A    between atoms: _238  and  _239
REMARK  110  A    between atoms: _244  and  _246
REMARK  111  A    between atoms: _246  and  _247
REMARK  112  A    between atoms: _246  and  _249
REMARK  113  A    between atoms: _249  and  _250
REMARK  114  A    between atoms: _250  and  _251
REMARK  115  A    between atoms: _256  and  _258
REMARK  116  A    between atoms: _258  and  _259
REMARK  117  A    between atoms: _258  and  _261
REMARK  118  A    between atoms: _261  and  _262
REMARK  119  A    between atoms: _265  and  _267
REMARK  120  A    between atoms: _267  and  _268
REMARK  121  A    between atoms: _267  and  _270
REMARK  122  A    between atoms: _270  and  _271
REMARK  123  A    between atoms: _275  and  _276
REMARK  124  A    between atoms: _281  and  _283
REMARK  125  A    between atoms: _283  and  _284
REMARK  126  A    between atoms: _286  and  _288
REMARK  127  A    between atoms: _288  and  _289
REMARK  128  A    between atoms: _288  and  _291
REMARK  129  A    between atoms: _291  and  _292
REMARK  130  A    between atoms: _297  and  _299
REMARK  131  A    between atoms: _299  and  _300
REMARK  132  A    between atoms: _299  and  _302
REMARK  133  A    between atoms: _302  and  _303
REMARK  134  A    between atoms: _303  and  _304
REMARK  135  A    between atoms: _307  and  _309
REMARK  136  A    between atoms: _309  and  _310
REMARK  137  A    between atoms: _309  and  _312
REMARK  138  A    between atoms: _312  and  _313
REMARK  139  A    between atoms: _319  and  _321
REMARK  140  A    between atoms: _321  and  _322
REMARK  141  A    between atoms: _321  and  _324
REMARK  142  A    between atoms: _324  and  _325
REMARK  143  A    between atoms: _325  and  _326
REMARK  144  A    between atoms: _326  and  _327
REMARK  145  A    between atoms: _336  and  _338
REMARK  146  A    between atoms: _338  and  _339
REMARK  147  A    between atoms: _338  and  _341
REMARK  148  A    between atoms: _344  and  _346
REMARK  149  A    between atoms: _346  and  _347
REMARK  150  A    between atoms: _346  and  _349
REMARK  151  A    between atoms: _349  and  _350
REMARK  152  A    between atoms: _353  and  _355
REMARK  153  A    between atoms: _355  and  _356
REMARK  154  A    between atoms: _355  and  _358
REMARK  155  A    between atoms: _358  and  _359
REMARK  156  A    between atoms: _362  and  _364
REMARK  157  A    between atoms: _364  and  _365
REMARK  158  A    between atoms: _364  and  _367
REMARK  159  A    between atoms: _367  and  _368
REMARK  160  A    between atoms: _368  and  _369
REMARK  161  A    between atoms: _371  and  _373
REMARK  162  A    between atoms: _373  and  _374
REMARK  163  A    between atoms: _373  and  _376
REMARK  164  A    between atoms: _376  and  _377
REMARK  165  A    between atoms: _377  and  _378
REMARK  166  A    between atoms: _383  and  _385
REMARK  167  A    between atoms: _385  and  _386
REMARK  168  A    between atoms: _385  and  _388
REMARK  169  A    between atoms: _388  and  _389
REMARK  170  A    between atoms: _392  and  _394
REMARK  171  A    between atoms: _394  and  _395
REMARK  172  A    between atoms: _394  and  _397
REMARK  173  A    between atoms: _397  and  _398
REMARK  174  A    between atoms: _403  and  _405
REMARK  175  A    between atoms: _405  and  _406
REMARK  176  A    between atoms: _405  and  _408
REMARK  177  A    between atoms: _408  and  _409
REMARK  178  A    between atoms: _409  and  _410
REMARK  179  A    between atoms: _410  and  _411
REMARK  180  A    between atoms: _411  and  _412
REMARK  181  A    between atoms: _416  and  _418
REMARK  182  A    between atoms: _418  and  _419
REMARK  183  A    between atoms: _418  and  _421
REMARK  184  A    between atoms: _421  and  _422
REMARK  185  A    between atoms: _425  and  _427
REMARK  186  A    between atoms: _427  and  _428
REMARK  187  A    between atoms: _427  and  _430
REMARK  188  A    between atoms: _430  and  _431
REMARK  189  A    between atoms: _434  and  _436
REMARK  190  A    between atoms: _436  and  _437
REMARK  191  A    between atoms: _436  and  _439
REMARK  192  A    between atoms: _439  and  _440
REMARK  193  A    between atoms: _440  and  _441
REMARK  194  A    between atoms: _441  and  _442
REMARK  195  A    between atoms: _451  and  _453
REMARK  196  A    between atoms: _453  and  _454
REMARK  197  A    between atoms: _453  and  _456
REMARK  198  A    between atoms: _456  and  _457
REMARK  199  A    between atoms: _460  and  _462
REMARK  200  A    between atoms: _462  and  _463
REMARK  201  A    between atoms: _462  and  _465
REMARK  202  A    between atoms: _465  and  _466
REMARK  203  A    between atoms: _469  and  _471
REMARK  204  A    between atoms: _471  and  _472
REMARK  205  A    between atoms: _471  and  _474
REMARK  206  A    between atoms: _474  and  _475
REMARK  207  A    between atoms: _477  and  _479
REMARK  208  A    between atoms: _479  and  _480
REMARK  209  A    between atoms: _483  and  _485
REMARK  210  A    between atoms: _485  and  _486
REMARK  211  A    between atoms: _485  and  _488
REMARK  212  A    between atoms: _488  and  _489
REMARK  213  A    between atoms: _494  and  _496
REMARK  214  A    between atoms: _496  and  _497
REMARK  215  A    between atoms: _496  and  _499
REMARK  216  A    between atoms: _499  and  _500
REMARK  217  A    between atoms: _503  and  _505
REMARK  218  A    between atoms: _505  and  _506
REMARK  219  A    between atoms: _508  and  _510
REMARK  220  A    between atoms: _510  and  _511
REMARK  221  A    between atoms: _510  and  _513
REMARK  222  A    between atoms: _513  and  _514
REMARK  223  A    between atoms: _514  and  _515
REMARK  224  A    between atoms: _518  and  _520
REMARK  225  A    between atoms: _520  and  _521
REMARK  226  A    between atoms: _520  and  _523
REMARK  227  A    between atoms: _523  and  _524
REMARK  228  A    between atoms: _527  and  _529
REMARK  229  A    between atoms: _529  and  _530
REMARK  230  A    between atoms: _529  and  _532
REMARK  231  A    between atoms: _532  and  _533
REMARK  232  A    between atoms: _533  and  _534
REMARK  233  A    between atoms: _534  and  _535
REMARK                            x       y       z     vdW  Elec       q    Type
REMARK                         _______ _______ _______ _____ _____    ______ ____
ROOT
ATOM      1  O   HOH     1      -5.071  22.726   7.529  0.00  0.00    +0.000 OA
ENDROOT
TORSDOF 0
REMARK  Name = ../refined-set-2016/4ncn/4ncn_pocket.pdb
REMARK  233 active torsions:
REMARK  status: ('A' for Active; 'I' for Inactive)
REMARK    1  A    between atoms: _1  and  _3
REMARK    2  A    between atoms: _3  and  _4
REMARK    3  A    between atoms: _3  and  _6
REMARK    4  A    between atoms: _6  and  _7
REMARK    5  A    between atoms: _10  and  _12
REMARK    6  A    between atoms: _12  and  _13
REMARK    7  A    between atoms: _12  and  _15
REMARK    8  A    between atoms: _15  and  _16
REMARK    9  A    between atoms: _19  and  _21
REMARK   10  A    between atoms: _21  and  _22
REMARK   11  A    between atoms: _24  and  _26
REMARK   12  A    between atoms: _26  and  _27
REMARK   13  A    between atoms: _26  and  _29
REMARK   14  A    between atoms: _29  and  _30
REMARK   15  A    between atoms: _35  and  _37
REMARK   16  A    between atoms: _37  and  _38
REMARK   17  A    between atoms: _37  and  _40
REMARK   18  A    between atoms: _43  and  _45
REMARK   19  A    between atoms: _45  and  _46
REMARK   20  A    between atoms: _45  and  _48
REMARK   21  A    between atoms: _48  and  _49
REMARK   22  A    between atoms: _52  and  _54
REMARK   23  A    between atoms: _54  and  _55
REMARK   24  A    between atoms: _54  and  _57
REMARK   25  A    between atoms: _57  and  _58
REMARK   26  A    between atoms: _61  and  _63
REMARK   27  A    between atoms: _63  and  _64
REMARK   28  A    between atoms: _66  and  _68
REMARK   29  A    between atoms: _68  and  _69
REMARK   30  A    between atoms: _68  and  _71
REMARK   31  A    between atoms: _71  and  _72
REMARK   32  A    between atoms: _72  and  _73
REMARK   33  A    between atoms: _73  and  _74
REMARK   34  A    between atoms: _74  and  _75
REMARK   35  A    between atoms: _79  and  _81
REMARK   36  A    between atoms: _81  and  _82
REMARK   37  A    between atoms: _81  and  _84
REMARK   38  A    between atoms: _84  and  _85
REMARK   39  A    between atoms: _88  and  _90
REMARK   40  A    between atoms: _90  and  _91
REMARK   41  A    between atoms: _90  and  _93
REMARK   42  A    between atoms: _93  and  _94
REMARK   43  A    between atoms: _94  and  _95
REMARK   44  A    between atoms: _95  and  _96
REMARK   45  A    between atoms: _96  and  _97
REMARK   46  A    between atoms: _101  and  _103
REMARK   47  A    between atoms: _103  and  _104
REMARK   48  A    between atoms: _103  and  _106
REMARK   49  A    between atoms: _106  and  _107
REMARK   50  A    between atoms: _110  and  _112
REMARK   51  A    between atoms: _112  and  _113
REMARK   52  A    between atoms: _112  and  _115
REMARK   53  A    between atoms: _115  and  _116
REMARK   54  A    between atoms: _119  and  _121
REMARK   55  A    between atoms: _121  and  _122
REMARK   56  A    between atoms: _121  and  _124
REMARK   57  A    between atoms: _124  and  _125
REMARK   58  A    between atoms: _128  and  _130
REMARK   59  A    between atoms: _130  and  _131
REMARK   60  A    between atoms: _130  and  _133
REMARK   61  A    between atoms: _133  and  _134
REMARK   62  A    between atoms: _134  and  _135
REMARK   63  A    between atoms: _135  and  _136
REMARK   64  A    between atoms: _136  and  _137
REMARK   65  A    between atoms: _141  and  _143
REMARK   66  A    between atoms: _143  and  _144
REMARK   67  A    between atoms: _143  and  _146
REMARK   68  A    between atoms: _146  and  _147
REMARK   69  A    between atoms: _147  and  _148
REMARK   70  A    between atoms: _148  and  _149
REMARK   71  A    between atoms: _158  and  _160
REMARK   72  A    between atoms: _160  and  _161
REMARK   73  A    between atoms: _160  and  _163
REMARK   74  A    between atoms: _166  and  _168
REMARK   75  A    between atoms: _168  and  _169
REMARK   76  A    between atoms: _168  and  _171
REMARK   77  A    between atoms: _171  and  _172
REMARK   78  A    between atoms: _172  and  _173
REMARK   79  A    between atoms: _178  and  _180
REMARK   80  A    between atoms: _180  and  _181
REMARK   81  A    between atoms: _180  and  _183
REMARK   82  A    between atoms: _183  and  _184
REMARK   83  A    between atoms: _184  and  _185
REMARK   84  A    between atoms: _188  and  _190
REMARK   85  A    between atoms: _190  and  _191
REMARK   86  A    between atoms: _190  and  _193
REMARK   87  A    between atoms: _193  and  _194
REMARK   88  A    between atoms: _194  and  _195
REMARK   89  A    between atoms: _198  and  _200
REMARK   90  A    between atoms: _200  and  _201
REMARK   91  A    between atoms: _204  and  _206
REMARK   92  A    between atoms: _206  and  _207
REMARK   93  A    between atoms: _209  and  _211
REMARK   94  A    between atoms: _211  and  _212
REMARK   95  A    between atoms: _212  and  _213
REMARK   96  A    between atoms: _212  and  _214
REMARK   97  A    between atoms: _214  and  _216
REMARK   98  A    between atoms: _216  and  _217
REMARK   99  A    between atoms: _216  and  _219
REMARK  100  A    between atoms: _219  and  _220
REMARK  101  A    between atoms: _223  and  _225
REMARK  102  A    between atoms: _225  and  _226
REMARK  103  A    between atoms: _225  and  _228
REMARK  104  A    between atoms: _228  and  _229
REMARK  105  A    between atoms: _232  and  _234
REMARK  106  A    between atoms: _234  and  _235
REMARK  107  A    between atoms: _234  and  _237
REMARK  108  A    between atoms: _237  and  _238
REMARK  109  A    between atoms: _238  and  _239
REMARK  110  A    between atoms: _244  and  _246
REMARK  111  A    between atoms: _246  and  _247
REMARK  112  A    between atoms: _246  and  _249
REMARK  113  A    between atoms: _249  and  _250
REMARK  114  A    between atoms: _250  and  _251
REMARK  115  A    between atoms: _256  and  _258
REMARK  116  A    between atoms: _258  and  _259
REMARK  117  A    between atoms: _258  and  _261
REMARK  118  A    between atoms: _261  and  _262
REMARK  119  A    between atoms: _265  and  _267
REMARK  120  A    between atoms: _267  and  _268
REMARK  121  A    between atoms: _267  and  _270
REMARK  122  A    between atoms: _270  and  _271
REMARK  123  A    between atoms: _275  and  _276
REMARK  124  A    between atoms: _281  and  _283
REMARK  125  A    between atoms: _283  and  _284
REMARK  126  A    between atoms: _286  and  _288
REMARK  127  A    between atoms: _288  and  _289
REMARK  128  A    between atoms: _288  and  _291
REMARK  129  A    between atoms: _291  and  _292
REMARK  130  A    between atoms: _297  and  _299
REMARK  131  A    between atoms: _299  and  _300
REMARK  132  A    between atoms: _299  and  _302
REMARK  133  A    between atoms: _302  and  _303
REMARK  134  A    between atoms: _303  and  _304
REMARK  135  A    between atoms: _307  and  _309
REMARK  136  A    between atoms: _309  and  _310
REMARK  137  A    between atoms: _309  and  _312
REMARK  138  A    between atoms: _312  and  _313
REMARK  139  A    between atoms: _319  and  _321
REMARK  140  A    between atoms: _321  and  _322
REMARK  141  A    between atoms: _321  and  _324
REMARK  142  A    between atoms: _324  and  _325
REMARK  143  A    between atoms: _325  and  _326
REMARK  144  A    between atoms: _326  and  _327
REMARK  145  A    between atoms: _336  and  _338
REMARK  146  A    between atoms: _338  and  _339
REMARK  147  A    between atoms: _338  and  _341
REMARK  148  A    between atoms: _344  and  _346
REMARK  149  A    between atoms: _346  and  _347
REMARK  150  A    between atoms: _346  and  _349
REMARK  151  A    between atoms: _349  and  _350
REMARK  152  A    between atoms: _353  and  _355
REMARK  153  A    between atoms: _355  and  _356
REMARK  154  A    between atoms: _355  and  _358
REMARK  155  A    between atoms: _358  and  _359
REMARK  156  A    between atoms: _362  and  _364
REMARK  157  A    between atoms: _364  and  _365
REMARK  158  A    between atoms: _364  and  _367
REMARK  159  A    between atoms: _367  and  _368
REMARK  160  A    between atoms: _368  and  _369
REMARK  161  A    between atoms: _371  and  _373
REMARK  162  A    between atoms: _373  and  _374
REMARK  163  A    between atoms: _373  and  _376
REMARK  164  A    between atoms: _376  and  _377
REMARK  165  A    between atoms: _377  and  _378
REMARK  166  A    between atoms: _383  and  _385
REMARK  167  A    between atoms: _385  and  _386
REMARK  168  A    between atoms: _385  and  _388
REMARK  169  A    between atoms: _388  and  _389
REMARK  170  A    between atoms: _392  and  _394
REMARK  171  A    between atoms: _394  and  _395
REMARK  172  A    between atoms: _394  and  _397
REMARK  173  A    between atoms: _397  and  _398
REMARK  174  A    between atoms: _403  and  _405
REMARK  175  A    between atoms: _405  and  _406
REMARK  176  A    between atoms: _405  and  _408
REMARK  177  A    between atoms: _408  and  _409
REMARK  178  A    between atoms: _409  and  _410
REMARK  179  A    between atoms: _410  and  _411
REMARK  180  A    between atoms: _411  and  _412
REMARK  181  A    between atoms: _416  and  _418
REMARK  182  A    between atoms: _418  and  _419
REMARK  183  A    between atoms: _418  and  _421
REMARK  184  A    between atoms: _421  and  _422
REMARK  185  A    between atoms: _425  and  _427
REMARK  186  A    between atoms: _427  and  _428
REMARK  187  A    between atoms: _427  and  _430
REMARK  188  A    between atoms: _430  and  _431
REMARK  189  A    between atoms: _434  and  _436
REMARK  190  A    between atoms: _436  and  _437
REMARK  191  A    between atoms: _436  and  _439
REMARK  192  A    between atoms: _439  and  _440
REMARK  193  A    between atoms: _440  and  _441
REMARK  194  A    between atoms: _441  and  _442
REMARK  195  A    between atoms: _451  and  _453
REMARK  196  A    between atoms: _453  and  _454
REMARK  197  A    between atoms: _453  and  _456
REMARK  198  A    between atoms: _456  and  _457
REMARK  199  A    between atoms: _460  and  _462
REMARK  200  A    between atoms: _462  and  _463
REMARK  201  A    between atoms: _462  and  _465
REMARK  202  A    between atoms: _465  and  _466
REMARK  203  A    between atoms: _469  and  _471
REMARK  204  A    between atoms: _471  and  _472
REMARK  205  A    between atoms: _471  and  _474
REMARK  206  A    between atoms: _474  and  _475
REMARK  207  A    between atoms: _477  and  _479
REMARK  208  A    between atoms: _479  and  _480
REMARK  209  A    between atoms: _483  and  _485
REMARK  210  A    between atoms: _485  and  _486
REMARK  211  A    between atoms: _485  and  _488
REMARK  212  A    between atoms: _488  and  _489
REMARK  213  A    between atoms: _494  and  _496
REMARK  214  A    between atoms: _496  and  _497
REMARK  215  A    between atoms: _496  and  _499
REMARK  216  A    between atoms: _499  and  _500
REMARK  217  A    between atoms: _503  and  _505
REMARK  218  A    between atoms: _505  and  _506
REMARK  219  A    between atoms: _508  and  _510
REMARK  220  A    between atoms: _510  and  _511
REMARK  221  A    between atoms: _510  and  _513
REMARK  222  A    between atoms: _513  and  _514
REMARK  223  A    between atoms: _514  and  _515
REMARK  224  A    between atoms: _518  and  _520
REMARK  225  A    between atoms: _520  and  _521
REMARK  226  A    between atoms: _520  and  _523
REMARK  227  A    between atoms: _523  and  _524
REMARK  228  A    between atoms: _527  and  _529
REMARK  229  A    between atoms: _529  and  _530
REMARK  230  A    between atoms: _529  and  _532
REMARK  231  A    between atoms: _532  and  _533
REMARK  232  A    between atoms: _533  and  _534
REMARK  233  A    between atoms: _534  and  _535
REMARK                            x       y       z     vdW  Elec       q    Type
REMARK                         _______ _______ _______ _____ _____    ______ ____
ROOT
ATOM      1  O   HOH     1     -11.322  14.539   2.503  0.00  0.00    +0.000 OA
ENDROOT
TORSDOF 0
REMARK  Name = ../refined-set-2016/4ncn/4ncn_pocket.pdb
REMARK  233 active torsions:
REMARK  status: ('A' for Active; 'I' for Inactive)
REMARK    1  A    between atoms: _1  and  _3
REMARK    2  A    between atoms: _3  and  _4
REMARK    3  A    between atoms: _3  and  _6
REMARK    4  A    between atoms: _6  and  _7
REMARK    5  A    between atoms: _10  and  _12
REMARK    6  A    between atoms: _12  and  _13
REMARK    7  A    between atoms: _12  and  _15
REMARK    8  A    between atoms: _15  and  _16
REMARK    9  A    between atoms: _19  and  _21
REMARK   10  A    between atoms: _21  and  _22
REMARK   11  A    between atoms: _24  and  _26
REMARK   12  A    between atoms: _26  and  _27
REMARK   13  A    between atoms: _26  and  _29
REMARK   14  A    between atoms: _29  and  _30
REMARK   15  A    between atoms: _35  and  _37
REMARK   16  A    between atoms: _37  and  _38
REMARK   17  A    between atoms: _37  and  _40
REMARK   18  A    between atoms: _43  and  _45
REMARK   19  A    between atoms: _45  and  _46
REMARK   20  A    between atoms: _45  and  _48
REMARK   21  A    between atoms: _48  and  _49
REMARK   22  A    between atoms: _52  and  _54
REMARK   23  A    between atoms: _54  and  _55
REMARK   24  A    between atoms: _54  and  _57
REMARK   25  A    between atoms: _57  and  _58
REMARK   26  A    between atoms: _61  and  _63
REMARK   27  A    between atoms: _63  and  _64
REMARK   28  A    between atoms: _66  and  _68
REMARK   29  A    between atoms: _68  and  _69
REMARK   30  A    between atoms: _68  and  _71
REMARK   31  A    between atoms: _71  and  _72
REMARK   32  A    between atoms: _72  and  _73
REMARK   33  A    between atoms: _73  and  _74
REMARK   34  A    between atoms: _74  and  _75
REMARK   35  A    between atoms: _79  and  _81
REMARK   36  A    between atoms: _81  and  _82
REMARK   37  A    between atoms: _81  and  _84
REMARK   38  A    between atoms: _84  and  _85
REMARK   39  A    between atoms: _88  and  _90
REMARK   40  A    between atoms: _90  and  _91
REMARK   41  A    between atoms: _90  and  _93
REMARK   42  A    between atoms: _93  and  _94
REMARK   43  A    between atoms: _94  and  _95
REMARK   44  A    between atoms: _95  and  _96
REMARK   45  A    between atoms: _96  and  _97
REMARK   46  A    between atoms: _101  and  _103
REMARK   47  A    between atoms: _103  and  _104
REMARK   48  A    between atoms: _103  and  _106
REMARK   49  A    between atoms: _106  and  _107
REMARK   50  A    between atoms: _110  and  _112
REMARK   51  A    between atoms: _112  and  _113
REMARK   52  A    between atoms: _112  and  _115
REMARK   53  A    between atoms: _115  and  _116
REMARK   54  A    between atoms: _119  and  _121
REMARK   55  A    between atoms: _121  and  _122
REMARK   56  A    between atoms: _121  and  _124
REMARK   57  A    between atoms: _124  and  _125
REMARK   58  A    between atoms: _128  and  _130
REMARK   59  A    between atoms: _130  and  _131
REMARK   60  A    between atoms: _130  and  _133
REMARK   61  A    between atoms: _133  and  _134
REMARK   62  A    between atoms: _134  and  _135
REMARK   63  A    between atoms: _135  and  _136
REMARK   64  A    between atoms: _136  and  _137
REMARK   65  A    between atoms: _141  and  _143
REMARK   66  A    between atoms: _143  and  _144
REMARK   67  A    between atoms: _143  and  _146
REMARK   68  A    between atoms: _146  and  _147
REMARK   69  A    between atoms: _147  and  _148
REMARK   70  A    between atoms: _148  and  _149
REMARK   71  A    between atoms: _158  and  _160
REMARK   72  A    between atoms: _160  and  _161
REMARK   73  A    between atoms: _160  and  _163
REMARK   74  A    between atoms: _166  and  _168
REMARK   75  A    between atoms: _168  and  _169
REMARK   76  A    between atoms: _168  and  _171
REMARK   77  A    between atoms: _171  and  _172
REMARK   78  A    between atoms: _172  and  _173
REMARK   79  A    between atoms: _178  and  _180
REMARK   80  A    between atoms: _180  and  _181
REMARK   81  A    between atoms: _180  and  _183
REMARK   82  A    between atoms: _183  and  _184
REMARK   83  A    between atoms: _184  and  _185
REMARK   84  A    between atoms: _188  and  _190
REMARK   85  A    between atoms: _190  and  _191
REMARK   86  A    between atoms: _190  and  _193
REMARK   87  A    between atoms: _193  and  _194
REMARK   88  A    between atoms: _194  and  _195
REMARK   89  A    between atoms: _198  and  _200
REMARK   90  A    between atoms: _200  and  _201
REMARK   91  A    between atoms: _204  and  _206
REMARK   92  A    between atoms: _206  and  _207
REMARK   93  A    between atoms: _209  and  _211
REMARK   94  A    between atoms: _211  and  _212
REMARK   95  A    between atoms: _212  and  _213
REMARK   96  A    between atoms: _212  and  _214
REMARK   97  A    between atoms: _214  and  _216
REMARK   98  A    between atoms: _216  and  _217
REMARK   99  A    between atoms: _216  and  _219
REMARK  100  A    between atoms: _219  and  _220
REMARK  101  A    between atoms: _223  and  _225
REMARK  102  A    between atoms: _225  and  _226
REMARK  103  A    between atoms: _225  and  _228
REMARK  104  A    between atoms: _228  and  _229
REMARK  105  A    between atoms: _232  and  _234
REMARK  106  A    between atoms: _234  and  _235
REMARK  107  A    between atoms: _234  and  _237
REMARK  108  A    between atoms: _237  and  _238
REMARK  109  A    between atoms: _238  and  _239
REMARK  110  A    between atoms: _244  and  _246
REMARK  111  A    between atoms: _246  and  _247
REMARK  112  A    between atoms: _246  and  _249
REMARK  113  A    between atoms: _249  and  _250
REMARK  114  A    between atoms: _250  and  _251
REMARK  115  A    between atoms: _256  and  _258
REMARK  116  A    between atoms: _258  and  _259
REMARK  117  A    between atoms: _258  and  _261
REMARK  118  A    between atoms: _261  and  _262
REMARK  119  A    between atoms: _265  and  _267
REMARK  120  A    between atoms: _267  and  _268
REMARK  121  A    between atoms: _267  and  _270
REMARK  122  A    between atoms: _270  and  _271
REMARK  123  A    between atoms: _275  and  _276
REMARK  124  A    between atoms: _281  and  _283
REMARK  125  A    between atoms: _283  and  _284
REMARK  126  A    between atoms: _286  and  _288
REMARK  127  A    between atoms: _288  and  _289
REMARK  128  A    between atoms: _288  and  _291
REMARK  129  A    between atoms: _291  and  _292
REMARK  130  A    between atoms: _297  and  _299
REMARK  131  A    between atoms: _299  and  _300
REMARK  132  A    between atoms: _299  and  _302
REMARK  133  A    between atoms: _302  and  _303
REMARK  134  A    between atoms: _303  and  _304
REMARK  135  A    between atoms: _307  and  _309
REMARK  136  A    between atoms: _309  and  _310
REMARK  137  A    between atoms: _309  and  _312
REMARK  138  A    between atoms: _312  and  _313
REMARK  139  A    between atoms: _319  and  _321
REMARK  140  A    between atoms: _321  and  _322
REMARK  141  A    between atoms: _321  and  _324
REMARK  142  A    between atoms: _324  and  _325
REMARK  143  A    between atoms: _325  and  _326
REMARK  144  A    between atoms: _326  and  _327
REMARK  145  A    between atoms: _336  and  _338
REMARK  146  A    between atoms: _338  and  _339
REMARK  147  A    between atoms: _338  and  _341
REMARK  148  A    between atoms: _344  and  _346
REMARK  149  A    between atoms: _346  and  _347
REMARK  150  A    between atoms: _346  and  _349
REMARK  151  A    between atoms: _349  and  _350
REMARK  152  A    between atoms: _353  and  _355
REMARK  153  A    between atoms: _355  and  _356
REMARK  154  A    between atoms: _355  and  _358
REMARK  155  A    between atoms: _358  and  _359
REMARK  156  A    between atoms: _362  and  _364
REMARK  157  A    between atoms: _364  and  _365
REMARK  158  A    between atoms: _364  and  _367
REMARK  159  A    between atoms: _367  and  _368
REMARK  160  A    between atoms: _368  and  _369
REMARK  161  A    between atoms: _371  and  _373
REMARK  162  A    between atoms: _373  and  _374
REMARK  163  A    between atoms: _373  and  _376
REMARK  164  A    between atoms: _376  and  _377
REMARK  165  A    between atoms: _377  and  _378
REMARK  166  A    between atoms: _383  and  _385
REMARK  167  A    between atoms: _385  and  _386
REMARK  168  A    between atoms: _385  and  _388
REMARK  169  A    between atoms: _388  and  _389
REMARK  170  A    between atoms: _392  and  _394
REMARK  171  A    between atoms: _394  and  _395
REMARK  172  A    between atoms: _394  and  _397
REMARK  173  A    between atoms: _397  and  _398
REMARK  174  A    between atoms: _403  and  _405
REMARK  175  A    between atoms: _405  and  _406
REMARK  176  A    between atoms: _405  and  _408
REMARK  177  A    between atoms: _408  and  _409
REMARK  178  A    between atoms: _409  and  _410
REMARK  179  A    between atoms: _410  and  _411
REMARK  180  A    between atoms: _411  and  _412
REMARK  181  A    between atoms: _416  and  _418
REMARK  182  A    between atoms: _418  and  _419
REMARK  183  A    between atoms: _418  and  _421
REMARK  184  A    between atoms: _421  and  _422
REMARK  185  A    between atoms: _425  and  _427
REMARK  186  A    between atoms: _427  and  _428
REMARK  187  A    between atoms: _427  and  _430
REMARK  188  A    between atoms: _430  and  _431
REMARK  189  A    between atoms: _434  and  _436
REMARK  190  A    between atoms: _436  and  _437
REMARK  191  A    between atoms: _436  and  _439
REMARK  192  A    between atoms: _439  and  _440
REMARK  193  A    between atoms: _440  and  _441
REMARK  194  A    between atoms: _441  and  _442
REMARK  195  A    between atoms: _451  and  _453
REMARK  196  A    between atoms: _453  and  _454
REMARK  197  A    between atoms: _453  and  _456
REMARK  198  A    between atoms: _456  and  _457
REMARK  199  A    between atoms: _460  and  _462
REMARK  200  A    between atoms: _462  and  _463
REMARK  201  A    between atoms: _462  and  _465
REMARK  202  A    between atoms: _465  and  _466
REMARK  203  A    between atoms: _469  and  _471
REMARK  204  A    between atoms: _471  and  _472
REMARK  205  A    between atoms: _471  and  _474
REMARK  206  A    between atoms: _474  and  _475
REMARK  207  A    between atoms: _477  and  _479
REMARK  208  A    between atoms: _479  and  _480
REMARK  209  A    between atoms: _483  and  _485
REMARK  210  A    between atoms: _485  and  _486
REMARK  211  A    between atoms: _485  and  _488
REMARK  212  A    between atoms: _488  and  _489
REMARK  213  A    between atoms: _494  and  _496
REMARK  214  A    between atoms: _496  and  _497
REMARK  215  A    between atoms: _496  and  _499
REMARK  216  A    between atoms: _499  and  _500
REMARK  217  A    between atoms: _503  and  _505
REMARK  218  A    between atoms: _505  and  _506
REMARK  219  A    between atoms: _508  and  _510
REMARK  220  A    between atoms: _510  and  _511
REMARK  221  A    between atoms: _510  and  _513
REMARK  222  A    between atoms: _513  and  _514
REMARK  223  A    between atoms: _514  and  _515
REMARK  224  A    between atoms: _518  and  _520
REMARK  225  A    between atoms: _520  and  _521
REMARK  226  A    between atoms: _520  and  _523
REMARK  227  A    between atoms: _523  and  _524
REMARK  228  A    between atoms: _527  and  _529
REMARK  229  A    between atoms: _529  and  _530
REMARK  230  A    between atoms: _529  and  _532
REMARK  231  A    between atoms: _532  and  _533
REMARK  232  A    between atoms: _533  and  _534
REMARK  233  A    between atoms: _534  and  _535
REMARK                            x       y       z     vdW  Elec       q    Type
REMARK                         _______ _______ _______ _____ _____    ______ ____
ROOT
ATOM      1  O   HOH     1     -12.213  33.697   8.744  0.00  0.00    +0.000 OA
ENDROOT
TORSDOF 0
REMARK  Name = ../refined-set-2016/4ncn/4ncn_pocket.pdb
REMARK  233 active torsions:
REMARK  status: ('A' for Active; 'I' for Inactive)
REMARK    1  A    between atoms: _1  and  _3
REMARK    2  A    between atoms: _3  and  _4
REMARK    3  A    between atoms: _3  and  _6
REMARK    4  A    between atoms: _6  and  _7
REMARK    5  A    between atoms: _10  and  _12
REMARK    6  A    between atoms: _12  and  _13
REMARK    7  A    between atoms: _12  and  _15
REMARK    8  A    between atoms: _15  and  _16
REMARK    9  A    between atoms: _19  and  _21
REMARK   10  A    between atoms: _21  and  _22
REMARK   11  A    between atoms: _24  and  _26
REMARK   12  A    between atoms: _26  and  _27
REMARK   13  A    between atoms: _26  and  _29
REMARK   14  A    between atoms: _29  and  _30
REMARK   15  A    between atoms: _35  and  _37
REMARK   16  A    between atoms: _37  and  _38
REMARK   17  A    between atoms: _37  and  _40
REMARK   18  A    between atoms: _43  and  _45
REMARK   19  A    between atoms: _45  and  _46
REMARK   20  A    between atoms: _45  and  _48
REMARK   21  A    between atoms: _48  and  _49
REMARK   22  A    between atoms: _52  and  _54
REMARK   23  A    between atoms: _54  and  _55
REMARK   24  A    between atoms: _54  and  _57
REMARK   25  A    between atoms: _57  and  _58
REMARK   26  A    between atoms: _61  and  _63
REMARK   27  A    between atoms: _63  and  _64
REMARK   28  A    between atoms: _66  and  _68
REMARK   29  A    between atoms: _68  and  _69
REMARK   30  A    between atoms: _68  and  _71
REMARK   31  A    between atoms: _71  and  _72
REMARK   32  A    between atoms: _72  and  _73
REMARK   33  A    between atoms: _73  and  _74
REMARK   34  A    between atoms: _74  and  _75
REMARK   35  A    between atoms: _79  and  _81
REMARK   36  A    between atoms: _81  and  _82
REMARK   37  A    between atoms: _81  and  _84
REMARK   38  A    between atoms: _84  and  _85
REMARK   39  A    between atoms: _88  and  _90
REMARK   40  A    between atoms: _90  and  _91
REMARK   41  A    between atoms: _90  and  _93
REMARK   42  A    between atoms: _93  and  _94
REMARK   43  A    between atoms: _94  and  _95
REMARK   44  A    between atoms: _95  and  _96
REMARK   45  A    between atoms: _96  and  _97
REMARK   46  A    between atoms: _101  and  _103
REMARK   47  A    between atoms: _103  and  _104
REMARK   48  A    between atoms: _103  and  _106
REMARK   49  A    between atoms: _106  and  _107
REMARK   50  A    between atoms: _110  and  _112
REMARK   51  A    between atoms: _112  and  _113
REMARK   52  A    between atoms: _112  and  _115
REMARK   53  A    between atoms: _115  and  _116
REMARK   54  A    between atoms: _119  and  _121
REMARK   55  A    between atoms: _121  and  _122
REMARK   56  A    between atoms: _121  and  _124
REMARK   57  A    between atoms: _124  and  _125
REMARK   58  A    between atoms: _128  and  _130
REMARK   59  A    between atoms: _130  and  _131
REMARK   60  A    between atoms: _130  and  _133
REMARK   61  A    between atoms: _133  and  _134
REMARK   62  A    between atoms: _134  and  _135
REMARK   63  A    between atoms: _135  and  _136
REMARK   64  A    between atoms: _136  and  _137
REMARK   65  A    between atoms: _141  and  _143
REMARK   66  A    between atoms: _143  and  _144
REMARK   67  A    between atoms: _143  and  _146
REMARK   68  A    between atoms: _146  and  _147
REMARK   69  A    between atoms: _147  and  _148
REMARK   70  A    between atoms: _148  and  _149
REMARK   71  A    between atoms: _158  and  _160
REMARK   72  A    between atoms: _160  and  _161
REMARK   73  A    between atoms: _160  and  _163
REMARK   74  A    between atoms: _166  and  _168
REMARK   75  A    between atoms: _168  and  _169
REMARK   76  A    between atoms: _168  and  _171
REMARK   77  A    between atoms: _171  and  _172
REMARK   78  A    between atoms: _172  and  _173
REMARK   79  A    between atoms: _178  and  _180
REMARK   80  A    between atoms: _180  and  _181
REMARK   81  A    between atoms: _180  and  _183
REMARK   82  A    between atoms: _183  and  _184
REMARK   83  A    between atoms: _184  and  _185
REMARK   84  A    between atoms: _188  and  _190
REMARK   85  A    between atoms: _190  and  _191
REMARK   86  A    between atoms: _190  and  _193
REMARK   87  A    between atoms: _193  and  _194
REMARK   88  A    between atoms: _194  and  _195
REMARK   89  A    between atoms: _198  and  _200
REMARK   90  A    between atoms: _200  and  _201
REMARK   91  A    between atoms: _204  and  _206
REMARK   92  A    between atoms: _206  and  _207
REMARK   93  A    between atoms: _209  and  _211
REMARK   94  A    between atoms: _211  and  _212
REMARK   95  A    between atoms: _212  and  _213
REMARK   96  A    between atoms: _212  and  _214
REMARK   97  A    between atoms: _214  and  _216
REMARK   98  A    between atoms: _216  and  _217
REMARK   99  A    between atoms: _216  and  _219
REMARK  100  A    between atoms: _219  and  _220
REMARK  101  A    between atoms: _223  and  _225
REMARK  102  A    between atoms: _225  and  _226
REMARK  103  A    between atoms: _225  and  _228
REMARK  104  A    between atoms: _228  and  _229
REMARK  105  A    between atoms: _232  and  _234
REMARK  106  A    between atoms: _234  and  _235
REMARK  107  A    between atoms: _234  and  _237
REMARK  108  A    between atoms: _237  and  _238
REMARK  109  A    between atoms: _238  and  _239
REMARK  110  A    between atoms: _244  and  _246
REMARK  111  A    between atoms: _246  and  _247
REMARK  112  A    between atoms: _246  and  _249
REMARK  113  A    between atoms: _249  and  _250
REMARK  114  A    between atoms: _250  and  _251
REMARK  115  A    between atoms: _256  and  _258
REMARK  116  A    between atoms: _258  and  _259
REMARK  117  A    between atoms: _258  and  _261
REMARK  118  A    between atoms: _261  and  _262
REMARK  119  A    between atoms: _265  and  _267
REMARK  120  A    between atoms: _267  and  _268
REMARK  121  A    between atoms: _267  and  _270
REMARK  122  A    between atoms: _270  and  _271
REMARK  123  A    between atoms: _275  and  _276
REMARK  124  A    between atoms: _281  and  _283
REMARK  125  A    between atoms: _283  and  _284
REMARK  126  A    between atoms: _286  and  _288
REMARK  127  A    between atoms: _288  and  _289
REMARK  128  A    between atoms: _288  and  _291
REMARK  129  A    between atoms: _291  and  _292
REMARK  130  A    between atoms: _297  and  _299
REMARK  131  A    between atoms: _299  and  _300
REMARK  132  A    between atoms: _299  and  _302
REMARK  133  A    between atoms: _302  and  _303
REMARK  134  A    between atoms: _303  and  _304
REMARK  135  A    between atoms: _307  and  _309
REMARK  136  A    between atoms: _309  and  _310
REMARK  137  A    between atoms: _309  and  _312
REMARK  138  A    between atoms: _312  and  _313
REMARK  139  A    between atoms: _319  and  _321
REMARK  140  A    between atoms: _321  and  _322
REMARK  141  A    between atoms: _321  and  _324
REMARK  142  A    between atoms: _324  and  _325
REMARK  143  A    between atoms: _325  and  _326
REMARK  144  A    between atoms: _326  and  _327
REMARK  145  A    between atoms: _336  and  _338
REMARK  146  A    between atoms: _338  and  _339
REMARK  147  A    between atoms: _338  and  _341
REMARK  148  A    between atoms: _344  and  _346
REMARK  149  A    between atoms: _346  and  _347
REMARK  150  A    between atoms: _346  and  _349
REMARK  151  A    between atoms: _349  and  _350
REMARK  152  A    between atoms: _353  and  _355
REMARK  153  A    between atoms: _355  and  _356
REMARK  154  A    between atoms: _355  and  _358
REMARK  155  A    between atoms: _358  and  _359
REMARK  156  A    between atoms: _362  and  _364
REMARK  157  A    between atoms: _364  and  _365
REMARK  158  A    between atoms: _364  and  _367
REMARK  159  A    between atoms: _367  and  _368
REMARK  160  A    between atoms: _368  and  _369
REMARK  161  A    between atoms: _371  and  _373
REMARK  162  A    between atoms: _373  and  _374
REMARK  163  A    between atoms: _373  and  _376
REMARK  164  A    between atoms: _376  and  _377
REMARK  165  A    between atoms: _377  and  _378
REMARK  166  A    between atoms: _383  and  _385
REMARK  167  A    between atoms: _385  and  _386
REMARK  168  A    between atoms: _385  and  _388
REMARK  169  A    between atoms: _388  and  _389
REMARK  170  A    between atoms: _392  and  _394
REMARK  171  A    between atoms: _394  and  _395
REMARK  172  A    between atoms: _394  and  _397
REMARK  173  A    between atoms: _397  and  _398
REMARK  174  A    between atoms: _403  and  _405
REMARK  175  A    between atoms: _405  and  _406
REMARK  176  A    between atoms: _405  and  _408
REMARK  177  A    between atoms: _408  and  _409
REMARK  178  A    between atoms: _409  and  _410
REMARK  179  A    between atoms: _410  and  _411
REMARK  180  A    between atoms: _411  and  _412
REMARK  181  A    between atoms: _416  and  _418
REMARK  182  A    between atoms: _418  and  _419
REMARK  183  A    between atoms: _418  and  _421
REMARK  184  A    between atoms: _421  and  _422
REMARK  185  A    between atoms: _425  and  _427
REMARK  186  A    between atoms: _427  and  _428
REMARK  187  A    between atoms: _427  and  _430
REMARK  188  A    between atoms: _430  and  _431
REMARK  189  A    between atoms: _434  and  _436
REMARK  190  A    between atoms: _436  and  _437
REMARK  191  A    between atoms: _436  and  _439
REMARK  192  A    between atoms: _439  and  _440
REMARK  193  A    between atoms: _440  and  _441
REMARK  194  A    between atoms: _441  and  _442
REMARK  195  A    between atoms: _451  and  _453
REMARK  196  A    between atoms: _453  and  _454
REMARK  197  A    between atoms: _453  and  _456
REMARK  198  A    between atoms: _456  and  _457
REMARK  199  A    between atoms: _460  and  _462
REMARK  200  A    between atoms: _462  and  _463
REMARK  201  A    between atoms: _462  and  _465
REMARK  202  A    between atoms: _465  and  _466
REMARK  203  A    between atoms: _469  and  _471
REMARK  204  A    between atoms: _471  and  _472
REMARK  205  A    between atoms: _471  and  _474
REMARK  206  A    between atoms: _474  and  _475
REMARK  207  A    between atoms: _477  and  _479
REMARK  208  A    between atoms: _479  and  _480
REMARK  209  A    between atoms: _483  and  _485
REMARK  210  A    between atoms: _485  and  _486
REMARK  211  A    between atoms: _485  and  _488
REMARK  212  A    between atoms: _488  and  _489
REMARK  213  A    between atoms: _494  and  _496
REMARK  214  A    between atoms: _496  and  _497
REMARK  215  A    between atoms: _496  and  _499
REMARK  216  A    between atoms: _499  and  _500
REMARK  217  A    between atoms: _503  and  _505
REMARK  218  A    between atoms: _505  and  _506
REMARK  219  A    between atoms: _508  and  _510
REMARK  220  A    between atoms: _510  and  _511
REMARK  221  A    between atoms: _510  and  _513
REMARK  222  A    between atoms: _513  and  _514
REMARK  223  A    between atoms: _514  and  _515
REMARK  224  A    between atoms: _518  and  _520
REMARK  225  A    between atoms: _520  and  _521
REMARK  226  A    between atoms: _520  and  _523
REMARK  227  A    between atoms: _523  and  _524
REMARK  228  A    between atoms: _527  and  _529
REMARK  229  A    between atoms: _529  and  _530
REMARK  230  A    between atoms: _529  and  _532
REMARK  231  A    between atoms: _532  and  _533
REMARK  232  A    between atoms: _533  and  _534
REMARK  233  A    between atoms: _534  and  _535
REMARK                            x       y       z     vdW  Elec       q    Type
REMARK                         _______ _______ _______ _____ _____    ______ ____
ROOT
ATOM      1  O   HOH     1     -14.693  33.182   8.969  0.00  0.00    +0.000 OA
ENDROOT
TORSDOF 0
REMARK  Name = ../refined-set-2016/4ncn/4ncn_pocket.pdb
REMARK  233 active torsions:
REMARK  status: ('A' for Active; 'I' for Inactive)
REMARK    1  A    between atoms: _1  and  _3
REMARK    2  A    between atoms: _3  and  _4
REMARK    3  A    between atoms: _3  and  _6
REMARK    4  A    between atoms: _6  and  _7
REMARK    5  A    between atoms: _10  and  _12
REMARK    6  A    between atoms: _12  and  _13
REMARK    7  A    between atoms: _12  and  _15
REMARK    8  A    between atoms: _15  and  _16
REMARK    9  A    between atoms: _19  and  _21
REMARK   10  A    between atoms: _21  and  _22
REMARK   11  A    between atoms: _24  and  _26
REMARK   12  A    between atoms: _26  and  _27
REMARK   13  A    between atoms: _26  and  _29
REMARK   14  A    between atoms: _29  and  _30
REMARK   15  A    between atoms: _35  and  _37
REMARK   16  A    between atoms: _37  and  _38
REMARK   17  A    between atoms: _37  and  _40
REMARK   18  A    between atoms: _43  and  _45
REMARK   19  A    between atoms: _45  and  _46
REMARK   20  A    between atoms: _45  and  _48
REMARK   21  A    between atoms: _48  and  _49
REMARK   22  A    between atoms: _52  and  _54
REMARK   23  A    between atoms: _54  and  _55
REMARK   24  A    between atoms: _54  and  _57
REMARK   25  A    between atoms: _57  and  _58
REMARK   26  A    between atoms: _61  and  _63
REMARK   27  A    between atoms: _63  and  _64
REMARK   28  A    between atoms: _66  and  _68
REMARK   29  A    between atoms: _68  and  _69
REMARK   30  A    between atoms: _68  and  _71
REMARK   31  A    between atoms: _71  and  _72
REMARK   32  A    between atoms: _72  and  _73
REMARK   33  A    between atoms: _73  and  _74
REMARK   34  A    between atoms: _74  and  _75
REMARK   35  A    between atoms: _79  and  _81
REMARK   36  A    between atoms: _81  and  _82
REMARK   37  A    between atoms: _81  and  _84
REMARK   38  A    between atoms: _84  and  _85
REMARK   39  A    between atoms: _88  and  _90
REMARK   40  A    between atoms: _90  and  _91
REMARK   41  A    between atoms: _90  and  _93
REMARK   42  A    between atoms: _93  and  _94
REMARK   43  A    between atoms: _94  and  _95
REMARK   44  A    between atoms: _95  and  _96
REMARK   45  A    between atoms: _96  and  _97
REMARK   46  A    between atoms: _101  and  _103
REMARK   47  A    between atoms: _103  and  _104
REMARK   48  A    between atoms: _103  and  _106
REMARK   49  A    between atoms: _106  and  _107
REMARK   50  A    between atoms: _110  and  _112
REMARK   51  A    between atoms: _112  and  _113
REMARK   52  A    between atoms: _112  and  _115
REMARK   53  A    between atoms: _115  and  _116
REMARK   54  A    between atoms: _119  and  _121
REMARK   55  A    between atoms: _121  and  _122
REMARK   56  A    between atoms: _121  and  _124
REMARK   57  A    between atoms: _124  and  _125
REMARK   58  A    between atoms: _128  and  _130
REMARK   59  A    between atoms: _130  and  _131
REMARK   60  A    between atoms: _130  and  _133
REMARK   61  A    between atoms: _133  and  _134
REMARK   62  A    between atoms: _134  and  _135
REMARK   63  A    between atoms: _135  and  _136
REMARK   64  A    between atoms: _136  and  _137
REMARK   65  A    between atoms: _141  and  _143
REMARK   66  A    between atoms: _143  and  _144
REMARK   67  A    between atoms: _143  and  _146
REMARK   68  A    between atoms: _146  and  _147
REMARK   69  A    between atoms: _147  and  _148
REMARK   70  A    between atoms: _148  and  _149
REMARK   71  A    between atoms: _158  and  _160
REMARK   72  A    between atoms: _160  and  _161
REMARK   73  A    between atoms: _160  and  _163
REMARK   74  A    between atoms: _166  and  _168
REMARK   75  A    between atoms: _168  and  _169
REMARK   76  A    between atoms: _168  and  _171
REMARK   77  A    between atoms: _171  and  _172
REMARK   78  A    between atoms: _172  and  _173
REMARK   79  A    between atoms: _178  and  _180
REMARK   80  A    between atoms: _180  and  _181
REMARK   81  A    between atoms: _180  and  _183
REMARK   82  A    between atoms: _183  and  _184
REMARK   83  A    between atoms: _184  and  _185
REMARK   84  A    between atoms: _188  and  _190
REMARK   85  A    between atoms: _190  and  _191
REMARK   86  A    between atoms: _190  and  _193
REMARK   87  A    between atoms: _193  and  _194
REMARK   88  A    between atoms: _194  and  _195
REMARK   89  A    between atoms: _198  and  _200
REMARK   90  A    between atoms: _200  and  _201
REMARK   91  A    between atoms: _204  and  _206
REMARK   92  A    between atoms: _206  and  _207
REMARK   93  A    between atoms: _209  and  _211
REMARK   94  A    between atoms: _211  and  _212
REMARK   95  A    between atoms: _212  and  _213
REMARK   96  A    between atoms: _212  and  _214
REMARK   97  A    between atoms: _214  and  _216
REMARK   98  A    between atoms: _216  and  _217
REMARK   99  A    between atoms: _216  and  _219
REMARK  100  A    between atoms: _219  and  _220
REMARK  101  A    between atoms: _223  and  _225
REMARK  102  A    between atoms: _225  and  _226
REMARK  103  A    between atoms: _225  and  _228
REMARK  104  A    between atoms: _228  and  _229
REMARK  105  A    between atoms: _232  and  _234
REMARK  106  A    between atoms: _234  and  _235
REMARK  107  A    between atoms: _234  and  _237
REMARK  108  A    between atoms: _237  and  _238
REMARK  109  A    between atoms: _238  and  _239
REMARK  110  A    between atoms: _244  and  _246
REMARK  111  A    between atoms: _246  and  _247
REMARK  112  A    between atoms: _246  and  _249
REMARK  113  A    between atoms: _249  and  _250
REMARK  114  A    between atoms: _250  and  _251
REMARK  115  A    between atoms: _256  and  _258
REMARK  116  A    between atoms: _258  and  _259
REMARK  117  A    between atoms: _258  and  _261
REMARK  118  A    between atoms: _261  and  _262
REMARK  119  A    between atoms: _265  and  _267
REMARK  120  A    between atoms: _267  and  _268
REMARK  121  A    between atoms: _267  and  _270
REMARK  122  A    between atoms: _270  and  _271
REMARK  123  A    between atoms: _275  and  _276
REMARK  124  A    between atoms: _281  and  _283
REMARK  125  A    between atoms: _283  and  _284
REMARK  126  A    between atoms: _286  and  _288
REMARK  127  A    between atoms: _288  and  _289
REMARK  128  A    between atoms: _288  and  _291
REMARK  129  A    between atoms: _291  and  _292
REMARK  130  A    between atoms: _297  and  _299
REMARK  131  A    between atoms: _299  and  _300
REMARK  132  A    between atoms: _299  and  _302
REMARK  133  A    between atoms: _302  and  _303
REMARK  134  A    between atoms: _303  and  _304
REMARK  135  A    between atoms: _307  and  _309
REMARK  136  A    between atoms: _309  and  _310
REMARK  137  A    between atoms: _309  and  _312
REMARK  138  A    between atoms: _312  and  _313
REMARK  139  A    between atoms: _319  and  _321
REMARK  140  A    between atoms: _321  and  _322
REMARK  141  A    between atoms: _321  and  _324
REMARK  142  A    between atoms: _324  and  _325
REMARK  143  A    between atoms: _325  and  _326
REMARK  144  A    between atoms: _326  and  _327
REMARK  145  A    between atoms: _336  and  _338
REMARK  146  A    between atoms: _338  and  _339
REMARK  147  A    between atoms: _338  and  _341
REMARK  148  A    between atoms: _344  and  _346
REMARK  149  A    between atoms: _346  and  _347
REMARK  150  A    between atoms: _346  and  _349
REMARK  151  A    between atoms: _349  and  _350
REMARK  152  A    between atoms: _353  and  _355
REMARK  153  A    between atoms: _355  and  _356
REMARK  154  A    between atoms: _355  and  _358
REMARK  155  A    between atoms: _358  and  _359
REMARK  156  A    between atoms: _362  and  _364
REMARK  157  A    between atoms: _364  and  _365
REMARK  158  A    between atoms: _364  and  _367
REMARK  159  A    between atoms: _367  and  _368
REMARK  160  A    between atoms: _368  and  _369
REMARK  161  A    between atoms: _371  and  _373
REMARK  162  A    between atoms: _373  and  _374
REMARK  163  A    between atoms: _373  and  _376
REMARK  164  A    between atoms: _376  and  _377
REMARK  165  A    between atoms: _377  and  _378
REMARK  166  A    between atoms: _383  and  _385
REMARK  167  A    between atoms: _385  and  _386
REMARK  168  A    between atoms: _385  and  _388
REMARK  169  A    between atoms: _388  and  _389
REMARK  170  A    between atoms: _392  and  _394
REMARK  171  A    between atoms: _394  and  _395
REMARK  172  A    between atoms: _394  and  _397
REMARK  173  A    between atoms: _397  and  _398
REMARK  174  A    between atoms: _403  and  _405
REMARK  175  A    between atoms: _405  and  _406
REMARK  176  A    between atoms: _405  and  _408
REMARK  177  A    between atoms: _408  and  _409
REMARK  178  A    between atoms: _409  and  _410
REMARK  179  A    between atoms: _410  and  _411
REMARK  180  A    between atoms: _411  and  _412
REMARK  181  A    between atoms: _416  and  _418
REMARK  182  A    between atoms: _418  and  _419
REMARK  183  A    between atoms: _418  and  _421
REMARK  184  A    between atoms: _421  and  _422
REMARK  185  A    between atoms: _425  and  _427
REMARK  186  A    between atoms: _427  and  _428
REMARK  187  A    between atoms: _427  and  _430
REMARK  188  A    between atoms: _430  and  _431
REMARK  189  A    between atoms: _434  and  _436
REMARK  190  A    between atoms: _436  and  _437
REMARK  191  A    between atoms: _436  and  _439
REMARK  192  A    between atoms: _439  and  _440
REMARK  193  A    between atoms: _440  and  _441
REMARK  194  A    between atoms: _441  and  _442
REMARK  195  A    between atoms: _451  and  _453
REMARK  196  A    between atoms: _453  and  _454
REMARK  197  A    between atoms: _453  and  _456
REMARK  198  A    between atoms: _456  and  _457
REMARK  199  A    between atoms: _460  and  _462
REMARK  200  A    between atoms: _462  and  _463
REMARK  201  A    between atoms: _462  and  _465
REMARK  202  A    between atoms: _465  and  _466
REMARK  203  A    between atoms: _469  and  _471
REMARK  204  A    between atoms: _471  and  _472
REMARK  205  A    between atoms: _471  and  _474
REMARK  206  A    between atoms: _474  and  _475
REMARK  207  A    between atoms: _477  and  _479
REMARK  208  A    between atoms: _479  and  _480
REMARK  209  A    between atoms: _483  and  _485
REMARK  210  A    between atoms: _485  and  _486
REMARK  211  A    between atoms: _485  and  _488
REMARK  212  A    between atoms: _488  and  _489
REMARK  213  A    between atoms: _494  and  _496
REMARK  214  A    between atoms: _496  and  _497
REMARK  215  A    between atoms: _496  and  _499
REMARK  216  A    between atoms: _499  and  _500
REMARK  217  A    between atoms: _503  and  _505
REMARK  218  A    between atoms: _505  and  _506
REMARK  219  A    between atoms: _508  and  _510
REMARK  220  A    between atoms: _510  and  _511
REMARK  221  A    between atoms: _510  and  _513
REMARK  222  A    between atoms: _513  and  _514
REMARK  223  A    between atoms: _514  and  _515
REMARK  224  A    between atoms: _518  and  _520
REMARK  225  A    between atoms: _520  and  _521
REMARK  226  A    between atoms: _520  and  _523
REMARK  227  A    between atoms: _523  and  _524
REMARK  228  A    between atoms: _527  and  _529
REMARK  229  A    between atoms: _529  and  _530
REMARK  230  A    between atoms: _529  and  _532
REMARK  231  A    between atoms: _532  and  _533
REMARK  232  A    between atoms: _533  and  _534
REMARK  233  A    between atoms: _534  and  _535
REMARK                            x       y       z     vdW  Elec       q    Type
REMARK                         _______ _______ _______ _____ _____    ______ ____
ROOT
ATOM      1  O   HOH     1     -17.723  33.320  10.785  0.00  0.00    +0.000 OA
ENDROOT
TORSDOF 0
REMARK  Name = ../refined-set-2016/4ncn/4ncn_pocket.pdb
REMARK  233 active torsions:
REMARK  status: ('A' for Active; 'I' for Inactive)
REMARK    1  A    between atoms: _1  and  _3
REMARK    2  A    between atoms: _3  and  _4
REMARK    3  A    between atoms: _3  and  _6
REMARK    4  A    between atoms: _6  and  _7
REMARK    5  A    between atoms: _10  and  _12
REMARK    6  A    between atoms: _12  and  _13
REMARK    7  A    between atoms: _12  and  _15
REMARK    8  A    between atoms: _15  and  _16
REMARK    9  A    between atoms: _19  and  _21
REMARK   10  A    between atoms: _21  and  _22
REMARK   11  A    between atoms: _24  and  _26
REMARK   12  A    between atoms: _26  and  _27
REMARK   13  A    between atoms: _26  and  _29
REMARK   14  A    between atoms: _29  and  _30
REMARK   15  A    between atoms: _35  and  _37
REMARK   16  A    between atoms: _37  and  _38
REMARK   17  A    between atoms: _37  and  _40
REMARK   18  A    between atoms: _43  and  _45
REMARK   19  A    between atoms: _45  and  _46
REMARK   20  A    between atoms: _45  and  _48
REMARK   21  A    between atoms: _48  and  _49
REMARK   22  A    between atoms: _52  and  _54
REMARK   23  A    between atoms: _54  and  _55
REMARK   24  A    between atoms: _54  and  _57
REMARK   25  A    between atoms: _57  and  _58
REMARK   26  A    between atoms: _61  and  _63
REMARK   27  A    between atoms: _63  and  _64
REMARK   28  A    between atoms: _66  and  _68
REMARK   29  A    between atoms: _68  and  _69
REMARK   30  A    between atoms: _68  and  _71
REMARK   31  A    between atoms: _71  and  _72
REMARK   32  A    between atoms: _72  and  _73
REMARK   33  A    between atoms: _73  and  _74
REMARK   34  A    between atoms: _74  and  _75
REMARK   35  A    between atoms: _79  and  _81
REMARK   36  A    between atoms: _81  and  _82
REMARK   37  A    between atoms: _81  and  _84
REMARK   38  A    between atoms: _84  and  _85
REMARK   39  A    between atoms: _88  and  _90
REMARK   40  A    between atoms: _90  and  _91
REMARK   41  A    between atoms: _90  and  _93
REMARK   42  A    between atoms: _93  and  _94
REMARK   43  A    between atoms: _94  and  _95
REMARK   44  A    between atoms: _95  and  _96
REMARK   45  A    between atoms: _96  and  _97
REMARK   46  A    between atoms: _101  and  _103
REMARK   47  A    between atoms: _103  and  _104
REMARK   48  A    between atoms: _103  and  _106
REMARK   49  A    between atoms: _106  and  _107
REMARK   50  A    between atoms: _110  and  _112
REMARK   51  A    between atoms: _112  and  _113
REMARK   52  A    between atoms: _112  and  _115
REMARK   53  A    between atoms: _115  and  _116
REMARK   54  A    between atoms: _119  and  _121
REMARK   55  A    between atoms: _121  and  _122
REMARK   56  A    between atoms: _121  and  _124
REMARK   57  A    between atoms: _124  and  _125
REMARK   58  A    between atoms: _128  and  _130
REMARK   59  A    between atoms: _130  and  _131
REMARK   60  A    between atoms: _130  and  _133
REMARK   61  A    between atoms: _133  and  _134
REMARK   62  A    between atoms: _134  and  _135
REMARK   63  A    between atoms: _135  and  _136
REMARK   64  A    between atoms: _136  and  _137
REMARK   65  A    between atoms: _141  and  _143
REMARK   66  A    between atoms: _143  and  _144
REMARK   67  A    between atoms: _143  and  _146
REMARK   68  A    between atoms: _146  and  _147
REMARK   69  A    between atoms: _147  and  _148
REMARK   70  A    between atoms: _148  and  _149
REMARK   71  A    between atoms: _158  and  _160
REMARK   72  A    between atoms: _160  and  _161
REMARK   73  A    between atoms: _160  and  _163
REMARK   74  A    between atoms: _166  and  _168
REMARK   75  A    between atoms: _168  and  _169
REMARK   76  A    between atoms: _168  and  _171
REMARK   77  A    between atoms: _171  and  _172
REMARK   78  A    between atoms: _172  and  _173
REMARK   79  A    between atoms: _178  and  _180
REMARK   80  A    between atoms: _180  and  _181
REMARK   81  A    between atoms: _180  and  _183
REMARK   82  A    between atoms: _183  and  _184
REMARK   83  A    between atoms: _184  and  _185
REMARK   84  A    between atoms: _188  and  _190
REMARK   85  A    between atoms: _190  and  _191
REMARK   86  A    between atoms: _190  and  _193
REMARK   87  A    between atoms: _193  and  _194
REMARK   88  A    between atoms: _194  and  _195
REMARK   89  A    between atoms: _198  and  _200
REMARK   90  A    between atoms: _200  and  _201
REMARK   91  A    between atoms: _204  and  _206
REMARK   92  A    between atoms: _206  and  _207
REMARK   93  A    between atoms: _209  and  _211
REMARK   94  A    between atoms: _211  and  _212
REMARK   95  A    between atoms: _212  and  _213
REMARK   96  A    between atoms: _212  and  _214
REMARK   97  A    between atoms: _214  and  _216
REMARK   98  A    between atoms: _216  and  _217
REMARK   99  A    between atoms: _216  and  _219
REMARK  100  A    between atoms: _219  and  _220
REMARK  101  A    between atoms: _223  and  _225
REMARK  102  A    between atoms: _225  and  _226
REMARK  103  A    between atoms: _225  and  _228
REMARK  104  A    between atoms: _228  and  _229
REMARK  105  A    between atoms: _232  and  _234
REMARK  106  A    between atoms: _234  and  _235
REMARK  107  A    between atoms: _234  and  _237
REMARK  108  A    between atoms: _237  and  _238
REMARK  109  A    between atoms: _238  and  _239
REMARK  110  A    between atoms: _244  and  _246
REMARK  111  A    between atoms: _246  and  _247
REMARK  112  A    between atoms: _246  and  _249
REMARK  113  A    between atoms: _249  and  _250
REMARK  114  A    between atoms: _250  and  _251
REMARK  115  A    between atoms: _256  and  _258
REMARK  116  A    between atoms: _258  and  _259
REMARK  117  A    between atoms: _258  and  _261
REMARK  118  A    between atoms: _261  and  _262
REMARK  119  A    between atoms: _265  and  _267
REMARK  120  A    between atoms: _267  and  _268
REMARK  121  A    between atoms: _267  and  _270
REMARK  122  A    between atoms: _270  and  _271
REMARK  123  A    between atoms: _275  and  _276
REMARK  124  A    between atoms: _281  and  _283
REMARK  125  A    between atoms: _283  and  _284
REMARK  126  A    between atoms: _286  and  _288
REMARK  127  A    between atoms: _288  and  _289
REMARK  128  A    between atoms: _288  and  _291
REMARK  129  A    between atoms: _291  and  _292
REMARK  130  A    between atoms: _297  and  _299
REMARK  131  A    between atoms: _299  and  _300
REMARK  132  A    between atoms: _299  and  _302
REMARK  133  A    between atoms: _302  and  _303
REMARK  134  A    between atoms: _303  and  _304
REMARK  135  A    between atoms: _307  and  _309
REMARK  136  A    between atoms: _309  and  _310
REMARK  137  A    between atoms: _309  and  _312
REMARK  138  A    between atoms: _312  and  _313
REMARK  139  A    between atoms: _319  and  _321
REMARK  140  A    between atoms: _321  and  _322
REMARK  141  A    between atoms: _321  and  _324
REMARK  142  A    between atoms: _324  and  _325
REMARK  143  A    between atoms: _325  and  _326
REMARK  144  A    between atoms: _326  and  _327
REMARK  145  A    between atoms: _336  and  _338
REMARK  146  A    between atoms: _338  and  _339
REMARK  147  A    between atoms: _338  and  _341
REMARK  148  A    between atoms: _344  and  _346
REMARK  149  A    between atoms: _346  and  _347
REMARK  150  A    between atoms: _346  and  _349
REMARK  151  A    between atoms: _349  and  _350
REMARK  152  A    between atoms: _353  and  _355
REMARK  153  A    between atoms: _355  and  _356
REMARK  154  A    between atoms: _355  and  _358
REMARK  155  A    between atoms: _358  and  _359
REMARK  156  A    between atoms: _362  and  _364
REMARK  157  A    between atoms: _364  and  _365
REMARK  158  A    between atoms: _364  and  _367
REMARK  159  A    between atoms: _367  and  _368
REMARK  160  A    between atoms: _368  and  _369
REMARK  161  A    between atoms: _371  and  _373
REMARK  162  A    between atoms: _373  and  _374
REMARK  163  A    between atoms: _373  and  _376
REMARK  164  A    between atoms: _376  and  _377
REMARK  165  A    between atoms: _377  and  _378
REMARK  166  A    between atoms: _383  and  _385
REMARK  167  A    between atoms: _385  and  _386
REMARK  168  A    between atoms: _385  and  _388
REMARK  169  A    between atoms: _388  and  _389
REMARK  170  A    between atoms: _392  and  _394
REMARK  171  A    between atoms: _394  and  _395
REMARK  172  A    between atoms: _394  and  _397
REMARK  173  A    between atoms: _397  and  _398
REMARK  174  A    between atoms: _403  and  _405
REMARK  175  A    between atoms: _405  and  _406
REMARK  176  A    between atoms: _405  and  _408
REMARK  177  A    between atoms: _408  and  _409
REMARK  178  A    between atoms: _409  and  _410
REMARK  179  A    between atoms: _410  and  _411
REMARK  180  A    between atoms: _411  and  _412
REMARK  181  A    between atoms: _416  and  _418
REMARK  182  A    between atoms: _418  and  _419
REMARK  183  A    between atoms: _418  and  _421
REMARK  184  A    between atoms: _421  and  _422
REMARK  185  A    between atoms: _425  and  _427
REMARK  186  A    between atoms: _427  and  _428
REMARK  187  A    between atoms: _427  and  _430
REMARK  188  A    between atoms: _430  and  _431
REMARK  189  A    between atoms: _434  and  _436
REMARK  190  A    between atoms: _436  and  _437
REMARK  191  A    between atoms: _436  and  _439
REMARK  192  A    between atoms: _439  and  _440
REMARK  193  A    between atoms: _440  and  _441
REMARK  194  A    between atoms: _441  and  _442
REMARK  195  A    between atoms: _451  and  _453
REMARK  196  A    between atoms: _453  and  _454
REMARK  197  A    between atoms: _453  and  _456
REMARK  198  A    between atoms: _456  and  _457
REMARK  199  A    between atoms: _460  and  _462
REMARK  200  A    between atoms: _462  and  _463
REMARK  201  A    between atoms: _462  and  _465
REMARK  202  A    between atoms: _465  and  _466
REMARK  203  A    between atoms: _469  and  _471
REMARK  204  A    between atoms: _471  and  _472
REMARK  205  A    between atoms: _471  and  _474
REMARK  206  A    between atoms: _474  and  _475
REMARK  207  A    between atoms: _477  and  _479
REMARK  208  A    between atoms: _479  and  _480
REMARK  209  A    between atoms: _483  and  _485
REMARK  210  A    between atoms: _485  and  _486
REMARK  211  A    between atoms: _485  and  _488
REMARK  212  A    between atoms: _488  and  _489
REMARK  213  A    between atoms: _494  and  _496
REMARK  214  A    between atoms: _496  and  _497
REMARK  215  A    between atoms: _496  and  _499
REMARK  216  A    between atoms: _499  and  _500
REMARK  217  A    between atoms: _503  and  _505
REMARK  218  A    between atoms: _505  and  _506
REMARK  219  A    between atoms: _508  and  _510
REMARK  220  A    between atoms: _510  and  _511
REMARK  221  A    between atoms: _510  and  _513
REMARK  222  A    between atoms: _513  and  _514
REMARK  223  A    between atoms: _514  and  _515
REMARK  224  A    between atoms: _518  and  _520
REMARK  225  A    between atoms: _520  and  _521
REMARK  226  A    between atoms: _520  and  _523
REMARK  227  A    between atoms: _523  and  _524
REMARK  228  A    between atoms: _527  and  _529
REMARK  229  A    between atoms: _529  and  _530
REMARK  230  A    between atoms: _529  and  _532
REMARK  231  A    between atoms: _532  and  _533
REMARK  232  A    between atoms: _533  and  _534
REMARK  233  A    between atoms: _534  and  _535
REMARK                            x       y       z     vdW  Elec       q    Type
REMARK                         _______ _______ _______ _____ _____    ______ ____
ROOT
ATOM      1  O   HOH     1     -20.084  25.520  13.160  0.00  0.00    +0.000 OA
ENDROOT
TORSDOF 0
REMARK  Name = ../refined-set-2016/4ncn/4ncn_pocket.pdb
REMARK  233 active torsions:
REMARK  status: ('A' for Active; 'I' for Inactive)
REMARK    1  A    between atoms: _1  and  _3
REMARK    2  A    between atoms: _3  and  _4
REMARK    3  A    between atoms: _3  and  _6
REMARK    4  A    between atoms: _6  and  _7
REMARK    5  A    between atoms: _10  and  _12
REMARK    6  A    between atoms: _12  and  _13
REMARK    7  A    between atoms: _12  and  _15
REMARK    8  A    between atoms: _15  and  _16
REMARK    9  A    between atoms: _19  and  _21
REMARK   10  A    between atoms: _21  and  _22
REMARK   11  A    between atoms: _24  and  _26
REMARK   12  A    between atoms: _26  and  _27
REMARK   13  A    between atoms: _26  and  _29
REMARK   14  A    between atoms: _29  and  _30
REMARK   15  A    between atoms: _35  and  _37
REMARK   16  A    between atoms: _37  and  _38
REMARK   17  A    between atoms: _37  and  _40
REMARK   18  A    between atoms: _43  and  _45
REMARK   19  A    between atoms: _45  and  _46
REMARK   20  A    between atoms: _45  and  _48
REMARK   21  A    between atoms: _48  and  _49
REMARK   22  A    between atoms: _52  and  _54
REMARK   23  A    between atoms: _54  and  _55
REMARK   24  A    between atoms: _54  and  _57
REMARK   25  A    between atoms: _57  and  _58
REMARK   26  A    between atoms: _61  and  _63
REMARK   27  A    between atoms: _63  and  _64
REMARK   28  A    between atoms: _66  and  _68
REMARK   29  A    between atoms: _68  and  _69
REMARK   30  A    between atoms: _68  and  _71
REMARK   31  A    between atoms: _71  and  _72
REMARK   32  A    between atoms: _72  and  _73
REMARK   33  A    between atoms: _73  and  _74
REMARK   34  A    between atoms: _74  and  _75
REMARK   35  A    between atoms: _79  and  _81
REMARK   36  A    between atoms: _81  and  _82
REMARK   37  A    between atoms: _81  and  _84
REMARK   38  A    between atoms: _84  and  _85
REMARK   39  A    between atoms: _88  and  _90
REMARK   40  A    between atoms: _90  and  _91
REMARK   41  A    between atoms: _90  and  _93
REMARK   42  A    between atoms: _93  and  _94
REMARK   43  A    between atoms: _94  and  _95
REMARK   44  A    between atoms: _95  and  _96
REMARK   45  A    between atoms: _96  and  _97
REMARK   46  A    between atoms: _101  and  _103
REMARK   47  A    between atoms: _103  and  _104
REMARK   48  A    between atoms: _103  and  _106
REMARK   49  A    between atoms: _106  and  _107
REMARK   50  A    between atoms: _110  and  _112
REMARK   51  A    between atoms: _112  and  _113
REMARK   52  A    between atoms: _112  and  _115
REMARK   53  A    between atoms: _115  and  _116
REMARK   54  A    between atoms: _119  and  _121
REMARK   55  A    between atoms: _121  and  _122
REMARK   56  A    between atoms: _121  and  _124
REMARK   57  A    between atoms: _124  and  _125
REMARK   58  A    between atoms: _128  and  _130
REMARK   59  A    between atoms: _130  and  _131
REMARK   60  A    between atoms: _130  and  _133
REMARK   61  A    between atoms: _133  and  _134
REMARK   62  A    between atoms: _134  and  _135
REMARK   63  A    between atoms: _135  and  _136
REMARK   64  A    between atoms: _136  and  _137
REMARK   65  A    between atoms: _141  and  _143
REMARK   66  A    between atoms: _143  and  _144
REMARK   67  A    between atoms: _143  and  _146
REMARK   68  A    between atoms: _146  and  _147
REMARK   69  A    between atoms: _147  and  _148
REMARK   70  A    between atoms: _148  and  _149
REMARK   71  A    between atoms: _158  and  _160
REMARK   72  A    between atoms: _160  and  _161
REMARK   73  A    between atoms: _160  and  _163
REMARK   74  A    between atoms: _166  and  _168
REMARK   75  A    between atoms: _168  and  _169
REMARK   76  A    between atoms: _168  and  _171
REMARK   77  A    between atoms: _171  and  _172
REMARK   78  A    between atoms: _172  and  _173
REMARK   79  A    between atoms: _178  and  _180
REMARK   80  A    between atoms: _180  and  _181
REMARK   81  A    between atoms: _180  and  _183
REMARK   82  A    between atoms: _183  and  _184
REMARK   83  A    between atoms: _184  and  _185
REMARK   84  A    between atoms: _188  and  _190
REMARK   85  A    between atoms: _190  and  _191
REMARK   86  A    between atoms: _190  and  _193
REMARK   87  A    between atoms: _193  and  _194
REMARK   88  A    between atoms: _194  and  _195
REMARK   89  A    between atoms: _198  and  _200
REMARK   90  A    between atoms: _200  and  _201
REMARK   91  A    between atoms: _204  and  _206
REMARK   92  A    between atoms: _206  and  _207
REMARK   93  A    between atoms: _209  and  _211
REMARK   94  A    between atoms: _211  and  _212
REMARK   95  A    between atoms: _212  and  _213
REMARK   96  A    between atoms: _212  and  _214
REMARK   97  A    between atoms: _214  and  _216
REMARK   98  A    between atoms: _216  and  _217
REMARK   99  A    between atoms: _216  and  _219
REMARK  100  A    between atoms: _219  and  _220
REMARK  101  A    between atoms: _223  and  _225
REMARK  102  A    between atoms: _225  and  _226
REMARK  103  A    between atoms: _225  and  _228
REMARK  104  A    between atoms: _228  and  _229
REMARK  105  A    between atoms: _232  and  _234
REMARK  106  A    between atoms: _234  and  _235
REMARK  107  A    between atoms: _234  and  _237
REMARK  108  A    between atoms: _237  and  _238
REMARK  109  A    between atoms: _238  and  _239
REMARK  110  A    between atoms: _244  and  _246
REMARK  111  A    between atoms: _246  and  _247
REMARK  112  A    between atoms: _246  and  _249
REMARK  113  A    between atoms: _249  and  _250
REMARK  114  A    between atoms: _250  and  _251
REMARK  115  A    between atoms: _256  and  _258
REMARK  116  A    between atoms: _258  and  _259
REMARK  117  A    between atoms: _258  and  _261
REMARK  118  A    between atoms: _261  and  _262
REMARK  119  A    between atoms: _265  and  _267
REMARK  120  A    between atoms: _267  and  _268
REMARK  121  A    between atoms: _267  and  _270
REMARK  122  A    between atoms: _270  and  _271
REMARK  123  A    between atoms: _275  and  _276
REMARK  124  A    between atoms: _281  and  _283
REMARK  125  A    between atoms: _283  and  _284
REMARK  126  A    between atoms: _286  and  _288
REMARK  127  A    between atoms: _288  and  _289
REMARK  128  A    between atoms: _288  and  _291
REMARK  129  A    between atoms: _291  and  _292
REMARK  130  A    between atoms: _297  and  _299
REMARK  131  A    between atoms: _299  and  _300
REMARK  132  A    between atoms: _299  and  _302
REMARK  133  A    between atoms: _302  and  _303
REMARK  134  A    between atoms: _303  and  _304
REMARK  135  A    between atoms: _307  and  _309
REMARK  136  A    between atoms: _309  and  _310
REMARK  137  A    between atoms: _309  and  _312
REMARK  138  A    between atoms: _312  and  _313
REMARK  139  A    between atoms: _319  and  _321
REMARK  140  A    between atoms: _321  and  _322
REMARK  141  A    between atoms: _321  and  _324
REMARK  142  A    between atoms: _324  and  _325
REMARK  143  A    between atoms: _325  and  _326
REMARK  144  A    between atoms: _326  and  _327
REMARK  145  A    between atoms: _336  and  _338
REMARK  146  A    between atoms: _338  and  _339
REMARK  147  A    between atoms: _338  and  _341
REMARK  148  A    between atoms: _344  and  _346
REMARK  149  A    between atoms: _346  and  _347
REMARK  150  A    between atoms: _346  and  _349
REMARK  151  A    between atoms: _349  and  _350
REMARK  152  A    between atoms: _353  and  _355
REMARK  153  A    between atoms: _355  and  _356
REMARK  154  A    between atoms: _355  and  _358
REMARK  155  A    between atoms: _358  and  _359
REMARK  156  A    between atoms: _362  and  _364
REMARK  157  A    between atoms: _364  and  _365
REMARK  158  A    between atoms: _364  and  _367
REMARK  159  A    between atoms: _367  and  _368
REMARK  160  A    between atoms: _368  and  _369
REMARK  161  A    between atoms: _371  and  _373
REMARK  162  A    between atoms: _373  and  _374
REMARK  163  A    between atoms: _373  and  _376
REMARK  164  A    between atoms: _376  and  _377
REMARK  165  A    between atoms: _377  and  _378
REMARK  166  A    between atoms: _383  and  _385
REMARK  167  A    between atoms: _385  and  _386
REMARK  168  A    between atoms: _385  and  _388
REMARK  169  A    between atoms: _388  and  _389
REMARK  170  A    between atoms: _392  and  _394
REMARK  171  A    between atoms: _394  and  _395
REMARK  172  A    between atoms: _394  and  _397
REMARK  173  A    between atoms: _397  and  _398
REMARK  174  A    between atoms: _403  and  _405
REMARK  175  A    between atoms: _405  and  _406
REMARK  176  A    between atoms: _405  and  _408
REMARK  177  A    between atoms: _408  and  _409
REMARK  178  A    between atoms: _409  and  _410
REMARK  179  A    between atoms: _410  and  _411
REMARK  180  A    between atoms: _411  and  _412
REMARK  181  A    between atoms: _416  and  _418
REMARK  182  A    between atoms: _418  and  _419
REMARK  183  A    between atoms: _418  and  _421
REMARK  184  A    between atoms: _421  and  _422
REMARK  185  A    between atoms: _425  and  _427
REMARK  186  A    between atoms: _427  and  _428
REMARK  187  A    between atoms: _427  and  _430
REMARK  188  A    between atoms: _430  and  _431
REMARK  189  A    between atoms: _434  and  _436
REMARK  190  A    between atoms: _436  and  _437
REMARK  191  A    between atoms: _436  and  _439
REMARK  192  A    between atoms: _439  and  _440
REMARK  193  A    between atoms: _440  and  _441
REMARK  194  A    between atoms: _441  and  _442
REMARK  195  A    between atoms: _451  and  _453
REMARK  196  A    between atoms: _453  and  _454
REMARK  197  A    between atoms: _453  and  _456
REMARK  198  A    between atoms: _456  and  _457
REMARK  199  A    between atoms: _460  and  _462
REMARK  200  A    between atoms: _462  and  _463
REMARK  201  A    between atoms: _462  and  _465
REMARK  202  A    between atoms: _465  and  _466
REMARK  203  A    between atoms: _469  and  _471
REMARK  204  A    between atoms: _471  and  _472
REMARK  205  A    between atoms: _471  and  _474
REMARK  206  A    between atoms: _474  and  _475
REMARK  207  A    between atoms: _477  and  _479
REMARK  208  A    between atoms: _479  and  _480
REMARK  209  A    between atoms: _483  and  _485
REMARK  210  A    between atoms: _485  and  _486
REMARK  211  A    between atoms: _485  and  _488
REMARK  212  A    between atoms: _488  and  _489
REMARK  213  A    between atoms: _494  and  _496
REMARK  214  A    between atoms: _496  and  _497
REMARK  215  A    between atoms: _496  and  _499
REMARK  216  A    between atoms: _499  and  _500
REMARK  217  A    between atoms: _503  and  _505
REMARK  218  A    between atoms: _505  and  _506
REMARK  219  A    between atoms: _508  and  _510
REMARK  220  A    between atoms: _510  and  _511
REMARK  221  A    between atoms: _510  and  _513
REMARK  222  A    between atoms: _513  and  _514
REMARK  223  A    between atoms: _514  and  _515
REMARK  224  A    between atoms: _518  and  _520
REMARK  225  A    between atoms: _520  and  _521
REMARK  226  A    between atoms: _520  and  _523
REMARK  227  A    between atoms: _523  and  _524
REMARK  228  A    between atoms: _527  and  _529
REMARK  229  A    between atoms: _529  and  _530
REMARK  230  A    between atoms: _529  and  _532
REMARK  231  A    between atoms: _532  and  _533
REMARK  232  A    between atoms: _533  and  _534
REMARK  233  A    between atoms: _534  and  _535
REMARK                            x       y       z     vdW  Elec       q    Type
REMARK                         _______ _______ _______ _____ _____    ______ ____
ROOT
ATOM      1  O   HOH     1     -13.275  21.707   4.266  0.00  0.00    +0.000 OA
ENDROOT
TORSDOF 0
REMARK  Name = ../refined-set-2016/4ncn/4ncn_pocket.pdb
REMARK  233 active torsions:
REMARK  status: ('A' for Active; 'I' for Inactive)
REMARK    1  A    between atoms: _1  and  _3
REMARK    2  A    between atoms: _3  and  _4
REMARK    3  A    between atoms: _3  and  _6
REMARK    4  A    between atoms: _6  and  _7
REMARK    5  A    between atoms: _10  and  _12
REMARK    6  A    between atoms: _12  and  _13
REMARK    7  A    between atoms: _12  and  _15
REMARK    8  A    between atoms: _15  and  _16
REMARK    9  A    between atoms: _19  and  _21
REMARK   10  A    between atoms: _21  and  _22
REMARK   11  A    between atoms: _24  and  _26
REMARK   12  A    between atoms: _26  and  _27
REMARK   13  A    between atoms: _26  and  _29
REMARK   14  A    between atoms: _29  and  _30
REMARK   15  A    between atoms: _35  and  _37
REMARK   16  A    between atoms: _37  and  _38
REMARK   17  A    between atoms: _37  and  _40
REMARK   18  A    between atoms: _43  and  _45
REMARK   19  A    between atoms: _45  and  _46
REMARK   20  A    between atoms: _45  and  _48
REMARK   21  A    between atoms: _48  and  _49
REMARK   22  A    between atoms: _52  and  _54
REMARK   23  A    between atoms: _54  and  _55
REMARK   24  A    between atoms: _54  and  _57
REMARK   25  A    between atoms: _57  and  _58
REMARK   26  A    between atoms: _61  and  _63
REMARK   27  A    between atoms: _63  and  _64
REMARK   28  A    between atoms: _66  and  _68
REMARK   29  A    between atoms: _68  and  _69
REMARK   30  A    between atoms: _68  and  _71
REMARK   31  A    between atoms: _71  and  _72
REMARK   32  A    between atoms: _72  and  _73
REMARK   33  A    between atoms: _73  and  _74
REMARK   34  A    between atoms: _74  and  _75
REMARK   35  A    between atoms: _79  and  _81
REMARK   36  A    between atoms: _81  and  _82
REMARK   37  A    between atoms: _81  and  _84
REMARK   38  A    between atoms: _84  and  _85
REMARK   39  A    between atoms: _88  and  _90
REMARK   40  A    between atoms: _90  and  _91
REMARK   41  A    between atoms: _90  and  _93
REMARK   42  A    between atoms: _93  and  _94
REMARK   43  A    between atoms: _94  and  _95
REMARK   44  A    between atoms: _95  and  _96
REMARK   45  A    between atoms: _96  and  _97
REMARK   46  A    between atoms: _101  and  _103
REMARK   47  A    between atoms: _103  and  _104
REMARK   48  A    between atoms: _103  and  _106
REMARK   49  A    between atoms: _106  and  _107
REMARK   50  A    between atoms: _110  and  _112
REMARK   51  A    between atoms: _112  and  _113
REMARK   52  A    between atoms: _112  and  _115
REMARK   53  A    between atoms: _115  and  _116
REMARK   54  A    between atoms: _119  and  _121
REMARK   55  A    between atoms: _121  and  _122
REMARK   56  A    between atoms: _121  and  _124
REMARK   57  A    between atoms: _124  and  _125
REMARK   58  A    between atoms: _128  and  _130
REMARK   59  A    between atoms: _130  and  _131
REMARK   60  A    between atoms: _130  and  _133
REMARK   61  A    between atoms: _133  and  _134
REMARK   62  A    between atoms: _134  and  _135
REMARK   63  A    between atoms: _135  and  _136
REMARK   64  A    between atoms: _136  and  _137
REMARK   65  A    between atoms: _141  and  _143
REMARK   66  A    between atoms: _143  and  _144
REMARK   67  A    between atoms: _143  and  _146
REMARK   68  A    between atoms: _146  and  _147
REMARK   69  A    between atoms: _147  and  _148
REMARK   70  A    between atoms: _148  and  _149
REMARK   71  A    between atoms: _158  and  _160
REMARK   72  A    between atoms: _160  and  _161
REMARK   73  A    between atoms: _160  and  _163
REMARK   74  A    between atoms: _166  and  _168
REMARK   75  A    between atoms: _168  and  _169
REMARK   76  A    between atoms: _168  and  _171
REMARK   77  A    between atoms: _171  and  _172
REMARK   78  A    between atoms: _172  and  _173
REMARK   79  A    between atoms: _178  and  _180
REMARK   80  A    between atoms: _180  and  _181
REMARK   81  A    between atoms: _180  and  _183
REMARK   82  A    between atoms: _183  and  _184
REMARK   83  A    between atoms: _184  and  _185
REMARK   84  A    between atoms: _188  and  _190
REMARK   85  A    between atoms: _190  and  _191
REMARK   86  A    between atoms: _190  and  _193
REMARK   87  A    between atoms: _193  and  _194
REMARK   88  A    between atoms: _194  and  _195
REMARK   89  A    between atoms: _198  and  _200
REMARK   90  A    between atoms: _200  and  _201
REMARK   91  A    between atoms: _204  and  _206
REMARK   92  A    between atoms: _206  and  _207
REMARK   93  A    between atoms: _209  and  _211
REMARK   94  A    between atoms: _211  and  _212
REMARK   95  A    between atoms: _212  and  _213
REMARK   96  A    between atoms: _212  and  _214
REMARK   97  A    between atoms: _214  and  _216
REMARK   98  A    between atoms: _216  and  _217
REMARK   99  A    between atoms: _216  and  _219
REMARK  100  A    between atoms: _219  and  _220
REMARK  101  A    between atoms: _223  and  _225
REMARK  102  A    between atoms: _225  and  _226
REMARK  103  A    between atoms: _225  and  _228
REMARK  104  A    between atoms: _228  and  _229
REMARK  105  A    between atoms: _232  and  _234
REMARK  106  A    between atoms: _234  and  _235
REMARK  107  A    between atoms: _234  and  _237
REMARK  108  A    between atoms: _237  and  _238
REMARK  109  A    between atoms: _238  and  _239
REMARK  110  A    between atoms: _244  and  _246
REMARK  111  A    between atoms: _246  and  _247
REMARK  112  A    between atoms: _246  and  _249
REMARK  113  A    between atoms: _249  and  _250
REMARK  114  A    between atoms: _250  and  _251
REMARK  115  A    between atoms: _256  and  _258
REMARK  116  A    between atoms: _258  and  _259
REMARK  117  A    between atoms: _258  and  _261
REMARK  118  A    between atoms: _261  and  _262
REMARK  119  A    between atoms: _265  and  _267
REMARK  120  A    between atoms: _267  and  _268
REMARK  121  A    between atoms: _267  and  _270
REMARK  122  A    between atoms: _270  and  _271
REMARK  123  A    between atoms: _275  and  _276
REMARK  124  A    between atoms: _281  and  _283
REMARK  125  A    between atoms: _283  and  _284
REMARK  126  A    between atoms: _286  and  _288
REMARK  127  A    between atoms: _288  and  _289
REMARK  128  A    between atoms: _288  and  _291
REMARK  129  A    between atoms: _291  and  _292
REMARK  130  A    between atoms: _297  and  _299
REMARK  131  A    between atoms: _299  and  _300
REMARK  132  A    between atoms: _299  and  _302
REMARK  133  A    between atoms: _302  and  _303
REMARK  134  A    between atoms: _303  and  _304
REMARK  135  A    between atoms: _307  and  _309
REMARK  136  A    between atoms: _309  and  _310
REMARK  137  A    between atoms: _309  and  _312
REMARK  138  A    between atoms: _312  and  _313
REMARK  139  A    between atoms: _319  and  _321
REMARK  140  A    between atoms: _321  and  _322
REMARK  141  A    between atoms: _321  and  _324
REMARK  142  A    between atoms: _324  and  _325
REMARK  143  A    between atoms: _325  and  _326
REMARK  144  A    between atoms: _326  and  _327
REMARK  145  A    between atoms: _336  and  _338
REMARK  146  A    between atoms: _338  and  _339
REMARK  147  A    between atoms: _338  and  _341
REMARK  148  A    between atoms: _344  and  _346
REMARK  149  A    between atoms: _346  and  _347
REMARK  150  A    between atoms: _346  and  _349
REMARK  151  A    between atoms: _349  and  _350
REMARK  152  A    between atoms: _353  and  _355
REMARK  153  A    between atoms: _355  and  _356
REMARK  154  A    between atoms: _355  and  _358
REMARK  155  A    between atoms: _358  and  _359
REMARK  156  A    between atoms: _362  and  _364
REMARK  157  A    between atoms: _364  and  _365
REMARK  158  A    between atoms: _364  and  _367
REMARK  159  A    between atoms: _367  and  _368
REMARK  160  A    between atoms: _368  and  _369
REMARK  161  A    between atoms: _371  and  _373
REMARK  162  A    between atoms: _373  and  _374
REMARK  163  A    between atoms: _373  and  _376
REMARK  164  A    between atoms: _376  and  _377
REMARK  165  A    between atoms: _377  and  _378
REMARK  166  A    between atoms: _383  and  _385
REMARK  167  A    between atoms: _385  and  _386
REMARK  168  A    between atoms: _385  and  _388
REMARK  169  A    between atoms: _388  and  _389
REMARK  170  A    between atoms: _392  and  _394
REMARK  171  A    between atoms: _394  and  _395
REMARK  172  A    between atoms: _394  and  _397
REMARK  173  A    between atoms: _397  and  _398
REMARK  174  A    between atoms: _403  and  _405
REMARK  175  A    between atoms: _405  and  _406
REMARK  176  A    between atoms: _405  and  _408
REMARK  177  A    between atoms: _408  and  _409
REMARK  178  A    between atoms: _409  and  _410
REMARK  179  A    between atoms: _410  and  _411
REMARK  180  A    between atoms: _411  and  _412
REMARK  181  A    between atoms: _416  and  _418
REMARK  182  A    between atoms: _418  and  _419
REMARK  183  A    between atoms: _418  and  _421
REMARK  184  A    between atoms: _421  and  _422
REMARK  185  A    between atoms: _425  and  _427
REMARK  186  A    between atoms: _427  and  _428
REMARK  187  A    between atoms: _427  and  _430
REMARK  188  A    between atoms: _430  and  _431
REMARK  189  A    between atoms: _434  and  _436
REMARK  190  A    between atoms: _436  and  _437
REMARK  191  A    between atoms: _436  and  _439
REMARK  192  A    between atoms: _439  and  _440
REMARK  193  A    between atoms: _440  and  _441
REMARK  194  A    between atoms: _441  and  _442
REMARK  195  A    between atoms: _451  and  _453
REMARK  196  A    between atoms: _453  and  _454
REMARK  197  A    between atoms: _453  and  _456
REMARK  198  A    between atoms: _456  and  _457
REMARK  199  A    between atoms: _460  and  _462
REMARK  200  A    between atoms: _462  and  _463
REMARK  201  A    between atoms: _462  and  _465
REMARK  202  A    between atoms: _465  and  _466
REMARK  203  A    between atoms: _469  and  _471
REMARK  204  A    between atoms: _471  and  _472
REMARK  205  A    between atoms: _471  and  _474
REMARK  206  A    between atoms: _474  and  _475
REMARK  207  A    between atoms: _477  and  _479
REMARK  208  A    between atoms: _479  and  _480
REMARK  209  A    between atoms: _483  and  _485
REMARK  210  A    between atoms: _485  and  _486
REMARK  211  A    between atoms: _485  and  _488
REMARK  212  A    between atoms: _488  and  _489
REMARK  213  A    between atoms: _494  and  _496
REMARK  214  A    between atoms: _496  and  _497
REMARK  215  A    between atoms: _496  and  _499
REMARK  216  A    between atoms: _499  and  _500
REMARK  217  A    between atoms: _503  and  _505
REMARK  218  A    between atoms: _505  and  _506
REMARK  219  A    between atoms: _508  and  _510
REMARK  220  A    between atoms: _510  and  _511
REMARK  221  A    between atoms: _510  and  _513
REMARK  222  A    between atoms: _513  and  _514
REMARK  223  A    between atoms: _514  and  _515
REMARK  224  A    between atoms: _518  and  _520
REMARK  225  A    between atoms: _520  and  _521
REMARK  226  A    between atoms: _520  and  _523
REMARK  227  A    between atoms: _523  and  _524
REMARK  228  A    between atoms: _527  and  _529
REMARK  229  A    between atoms: _529  and  _530
REMARK  230  A    between atoms: _529  and  _532
REMARK  231  A    between atoms: _532  and  _533
REMARK  232  A    between atoms: _533  and  _534
REMARK  233  A    between atoms: _534  and  _535
REMARK                            x       y       z     vdW  Elec       q    Type
REMARK                         _______ _______ _______ _____ _____    ______ ____
ROOT
ATOM      1  O   HOH     1     -14.127  16.420   5.755  0.00  0.00    +0.000 OA
ENDROOT
TORSDOF 0
REMARK  Name = ../refined-set-2016/4ncn/4ncn_pocket.pdb
REMARK  233 active torsions:
REMARK  status: ('A' for Active; 'I' for Inactive)
REMARK    1  A    between atoms: _1  and  _3
REMARK    2  A    between atoms: _3  and  _4
REMARK    3  A    between atoms: _3  and  _6
REMARK    4  A    between atoms: _6  and  _7
REMARK    5  A    between atoms: _10  and  _12
REMARK    6  A    between atoms: _12  and  _13
REMARK    7  A    between atoms: _12  and  _15
REMARK    8  A    between atoms: _15  and  _16
REMARK    9  A    between atoms: _19  and  _21
REMARK   10  A    between atoms: _21  and  _22
REMARK   11  A    between atoms: _24  and  _26
REMARK   12  A    between atoms: _26  and  _27
REMARK   13  A    between atoms: _26  and  _29
REMARK   14  A    between atoms: _29  and  _30
REMARK   15  A    between atoms: _35  and  _37
REMARK   16  A    between atoms: _37  and  _38
REMARK   17  A    between atoms: _37  and  _40
REMARK   18  A    between atoms: _43  and  _45
REMARK   19  A    between atoms: _45  and  _46
REMARK   20  A    between atoms: _45  and  _48
REMARK   21  A    between atoms: _48  and  _49
REMARK   22  A    between atoms: _52  and  _54
REMARK   23  A    between atoms: _54  and  _55
REMARK   24  A    between atoms: _54  and  _57
REMARK   25  A    between atoms: _57  and  _58
REMARK   26  A    between atoms: _61  and  _63
REMARK   27  A    between atoms: _63  and  _64
REMARK   28  A    between atoms: _66  and  _68
REMARK   29  A    between atoms: _68  and  _69
REMARK   30  A    between atoms: _68  and  _71
REMARK   31  A    between atoms: _71  and  _72
REMARK   32  A    between atoms: _72  and  _73
REMARK   33  A    between atoms: _73  and  _74
REMARK   34  A    between atoms: _74  and  _75
REMARK   35  A    between atoms: _79  and  _81
REMARK   36  A    between atoms: _81  and  _82
REMARK   37  A    between atoms: _81  and  _84
REMARK   38  A    between atoms: _84  and  _85
REMARK   39  A    between atoms: _88  and  _90
REMARK   40  A    between atoms: _90  and  _91
REMARK   41  A    between atoms: _90  and  _93
REMARK   42  A    between atoms: _93  and  _94
REMARK   43  A    between atoms: _94  and  _95
REMARK   44  A    between atoms: _95  and  _96
REMARK   45  A    between atoms: _96  and  _97
REMARK   46  A    between atoms: _101  and  _103
REMARK   47  A    between atoms: _103  and  _104
REMARK   48  A    between atoms: _103  and  _106
REMARK   49  A    between atoms: _106  and  _107
REMARK   50  A    between atoms: _110  and  _112
REMARK   51  A    between atoms: _112  and  _113
REMARK   52  A    between atoms: _112  and  _115
REMARK   53  A    between atoms: _115  and  _116
REMARK   54  A    between atoms: _119  and  _121
REMARK   55  A    between atoms: _121  and  _122
REMARK   56  A    between atoms: _121  and  _124
REMARK   57  A    between atoms: _124  and  _125
REMARK   58  A    between atoms: _128  and  _130
REMARK   59  A    between atoms: _130  and  _131
REMARK   60  A    between atoms: _130  and  _133
REMARK   61  A    between atoms: _133  and  _134
REMARK   62  A    between atoms: _134  and  _135
REMARK   63  A    between atoms: _135  and  _136
REMARK   64  A    between atoms: _136  and  _137
REMARK   65  A    between atoms: _141  and  _143
REMARK   66  A    between atoms: _143  and  _144
REMARK   67  A    between atoms: _143  and  _146
REMARK   68  A    between atoms: _146  and  _147
REMARK   69  A    between atoms: _147  and  _148
REMARK   70  A    between atoms: _148  and  _149
REMARK   71  A    between atoms: _158  and  _160
REMARK   72  A    between atoms: _160  and  _161
REMARK   73  A    between atoms: _160  and  _163
REMARK   74  A    between atoms: _166  and  _168
REMARK   75  A    between atoms: _168  and  _169
REMARK   76  A    between atoms: _168  and  _171
REMARK   77  A    between atoms: _171  and  _172
REMARK   78  A    between atoms: _172  and  _173
REMARK   79  A    between atoms: _178  and  _180
REMARK   80  A    between atoms: _180  and  _181
REMARK   81  A    between atoms: _180  and  _183
REMARK   82  A    between atoms: _183  and  _184
REMARK   83  A    between atoms: _184  and  _185
REMARK   84  A    between atoms: _188  and  _190
REMARK   85  A    between atoms: _190  and  _191
REMARK   86  A    between atoms: _190  and  _193
REMARK   87  A    between atoms: _193  and  _194
REMARK   88  A    between atoms: _194  and  _195
REMARK   89  A    between atoms: _198  and  _200
REMARK   90  A    between atoms: _200  and  _201
REMARK   91  A    between atoms: _204  and  _206
REMARK   92  A    between atoms: _206  and  _207
REMARK   93  A    between atoms: _209  and  _211
REMARK   94  A    between atoms: _211  and  _212
REMARK   95  A    between atoms: _212  and  _213
REMARK   96  A    between atoms: _212  and  _214
REMARK   97  A    between atoms: _214  and  _216
REMARK   98  A    between atoms: _216  and  _217
REMARK   99  A    between atoms: _216  and  _219
REMARK  100  A    between atoms: _219  and  _220
REMARK  101  A    between atoms: _223  and  _225
REMARK  102  A    between atoms: _225  and  _226
REMARK  103  A    between atoms: _225  and  _228
REMARK  104  A    between atoms: _228  and  _229
REMARK  105  A    between atoms: _232  and  _234
REMARK  106  A    between atoms: _234  and  _235
REMARK  107  A    between atoms: _234  and  _237
REMARK  108  A    between atoms: _237  and  _238
REMARK  109  A    between atoms: _238  and  _239
REMARK  110  A    between atoms: _244  and  _246
REMARK  111  A    between atoms: _246  and  _247
REMARK  112  A    between atoms: _246  and  _249
REMARK  113  A    between atoms: _249  and  _250
REMARK  114  A    between atoms: _250  and  _251
REMARK  115  A    between atoms: _256  and  _258
REMARK  116  A    between atoms: _258  and  _259
REMARK  117  A    between atoms: _258  and  _261
REMARK  118  A    between atoms: _261  and  _262
REMARK  119  A    between atoms: _265  and  _267
REMARK  120  A    between atoms: _267  and  _268
REMARK  121  A    between atoms: _267  and  _270
REMARK  122  A    between atoms: _270  and  _271
REMARK  123  A    between atoms: _275  and  _276
REMARK  124  A    between atoms: _281  and  _283
REMARK  125  A    between atoms: _283  and  _284
REMARK  126  A    between atoms: _286  and  _288
REMARK  127  A    between atoms: _288  and  _289
REMARK  128  A    between atoms: _288  and  _291
REMARK  129  A    between atoms: _291  and  _292
REMARK  130  A    between atoms: _297  and  _299
REMARK  131  A    between atoms: _299  and  _300
REMARK  132  A    between atoms: _299  and  _302
REMARK  133  A    between atoms: _302  and  _303
REMARK  134  A    between atoms: _303  and  _304
REMARK  135  A    between atoms: _307  and  _309
REMARK  136  A    between atoms: _309  and  _310
REMARK  137  A    between atoms: _309  and  _312
REMARK  138  A    between atoms: _312  and  _313
REMARK  139  A    between atoms: _319  and  _321
REMARK  140  A    between atoms: _321  and  _322
REMARK  141  A    between atoms: _321  and  _324
REMARK  142  A    between atoms: _324  and  _325
REMARK  143  A    between atoms: _325  and  _326
REMARK  144  A    between atoms: _326  and  _327
REMARK  145  A    between atoms: _336  and  _338
REMARK  146  A    between atoms: _338  and  _339
REMARK  147  A    between atoms: _338  and  _341
REMARK  148  A    between atoms: _344  and  _346
REMARK  149  A    between atoms: _346  and  _347
REMARK  150  A    between atoms: _346  and  _349
REMARK  151  A    between atoms: _349  and  _350
REMARK  152  A    between atoms: _353  and  _355
REMARK  153  A    between atoms: _355  and  _356
REMARK  154  A    between atoms: _355  and  _358
REMARK  155  A    between atoms: _358  and  _359
REMARK  156  A    between atoms: _362  and  _364
REMARK  157  A    between atoms: _364  and  _365
REMARK  158  A    between atoms: _364  and  _367
REMARK  159  A    between atoms: _367  and  _368
REMARK  160  A    between atoms: _368  and  _369
REMARK  161  A    between atoms: _371  and  _373
REMARK  162  A    between atoms: _373  and  _374
REMARK  163  A    between atoms: _373  and  _376
REMARK  164  A    between atoms: _376  and  _377
REMARK  165  A    between atoms: _377  and  _378
REMARK  166  A    between atoms: _383  and  _385
REMARK  167  A    between atoms: _385  and  _386
REMARK  168  A    between atoms: _385  and  _388
REMARK  169  A    between atoms: _388  and  _389
REMARK  170  A    between atoms: _392  and  _394
REMARK  171  A    between atoms: _394  and  _395
REMARK  172  A    between atoms: _394  and  _397
REMARK  173  A    between atoms: _397  and  _398
REMARK  174  A    between atoms: _403  and  _405
REMARK  175  A    between atoms: _405  and  _406
REMARK  176  A    between atoms: _405  and  _408
REMARK  177  A    between atoms: _408  and  _409
REMARK  178  A    between atoms: _409  and  _410
REMARK  179  A    between atoms: _410  and  _411
REMARK  180  A    between atoms: _411  and  _412
REMARK  181  A    between atoms: _416  and  _418
REMARK  182  A    between atoms: _418  and  _419
REMARK  183  A    between atoms: _418  and  _421
REMARK  184  A    between atoms: _421  and  _422
REMARK  185  A    between atoms: _425  and  _427
REMARK  186  A    between atoms: _427  and  _428
REMARK  187  A    between atoms: _427  and  _430
REMARK  188  A    between atoms: _430  and  _431
REMARK  189  A    between atoms: _434  and  _436
REMARK  190  A    between atoms: _436  and  _437
REMARK  191  A    between atoms: _436  and  _439
REMARK  192  A    between atoms: _439  and  _440
REMARK  193  A    between atoms: _440  and  _441
REMARK  194  A    between atoms: _441  and  _442
REMARK  195  A    between atoms: _451  and  _453
REMARK  196  A    between atoms: _453  and  _454
REMARK  197  A    between atoms: _453  and  _456
REMARK  198  A    between atoms: _456  and  _457
REMARK  199  A    between atoms: _460  and  _462
REMARK  200  A    between atoms: _462  and  _463
REMARK  201  A    between atoms: _462  and  _465
REMARK  202  A    between atoms: _465  and  _466
REMARK  203  A    between atoms: _469  and  _471
REMARK  204  A    between atoms: _471  and  _472
REMARK  205  A    between atoms: _471  and  _474
REMARK  206  A    between atoms: _474  and  _475
REMARK  207  A    between atoms: _477  and  _479
REMARK  208  A    between atoms: _479  and  _480
REMARK  209  A    between atoms: _483  and  _485
REMARK  210  A    between atoms: _485  and  _486
REMARK  211  A    between atoms: _485  and  _488
REMARK  212  A    between atoms: _488  and  _489
REMARK  213  A    between atoms: _494  and  _496
REMARK  214  A    between atoms: _496  and  _497
REMARK  215  A    between atoms: _496  and  _499
REMARK  216  A    between atoms: _499  and  _500
REMARK  217  A    between atoms: _503  and  _505
REMARK  218  A    between atoms: _505  and  _506
REMARK  219  A    between atoms: _508  and  _510
REMARK  220  A    between atoms: _510  and  _511
REMARK  221  A    between atoms: _510  and  _513
REMARK  222  A    between atoms: _513  and  _514
REMARK  223  A    between atoms: _514  and  _515
REMARK  224  A    between atoms: _518  and  _520
REMARK  225  A    between atoms: _520  and  _521
REMARK  226  A    between atoms: _520  and  _523
REMARK  227  A    between atoms: _523  and  _524
REMARK  228  A    between atoms: _527  and  _529
REMARK  229  A    between atoms: _529  and  _530
REMARK  230  A    between atoms: _529  and  _532
REMARK  231  A    between atoms: _532  and  _533
REMARK  232  A    between atoms: _533  and  _534
REMARK  233  A    between atoms: _534  and  _535
REMARK                            x       y       z     vdW  Elec       q    Type
REMARK                         _______ _______ _______ _____ _____    ______ ____
ROOT
ATOM      1  O   HOH     1     -17.081  19.257  10.338  0.00  0.00    +0.000 OA
ENDROOT
TORSDOF 0
REMARK  Name = ../refined-set-2016/4ncn/4ncn_pocket.pdb
REMARK  233 active torsions:
REMARK  status: ('A' for Active; 'I' for Inactive)
REMARK    1  A    between atoms: _1  and  _3
REMARK    2  A    between atoms: _3  and  _4
REMARK    3  A    between atoms: _3  and  _6
REMARK    4  A    between atoms: _6  and  _7
REMARK    5  A    between atoms: _10  and  _12
REMARK    6  A    between atoms: _12  and  _13
REMARK    7  A    between atoms: _12  and  _15
REMARK    8  A    between atoms: _15  and  _16
REMARK    9  A    between atoms: _19  and  _21
REMARK   10  A    between atoms: _21  and  _22
REMARK   11  A    between atoms: _24  and  _26
REMARK   12  A    between atoms: _26  and  _27
REMARK   13  A    between atoms: _26  and  _29
REMARK   14  A    between atoms: _29  and  _30
REMARK   15  A    between atoms: _35  and  _37
REMARK   16  A    between atoms: _37  and  _38
REMARK   17  A    between atoms: _37  and  _40
REMARK   18  A    between atoms: _43  and  _45
REMARK   19  A    between atoms: _45  and  _46
REMARK   20  A    between atoms: _45  and  _48
REMARK   21  A    between atoms: _48  and  _49
REMARK   22  A    between atoms: _52  and  _54
REMARK   23  A    between atoms: _54  and  _55
REMARK   24  A    between atoms: _54  and  _57
REMARK   25  A    between atoms: _57  and  _58
REMARK   26  A    between atoms: _61  and  _63
REMARK   27  A    between atoms: _63  and  _64
REMARK   28  A    between atoms: _66  and  _68
REMARK   29  A    between atoms: _68  and  _69
REMARK   30  A    between atoms: _68  and  _71
REMARK   31  A    between atoms: _71  and  _72
REMARK   32  A    between atoms: _72  and  _73
REMARK   33  A    between atoms: _73  and  _74
REMARK   34  A    between atoms: _74  and  _75
REMARK   35  A    between atoms: _79  and  _81
REMARK   36  A    between atoms: _81  and  _82
REMARK   37  A    between atoms: _81  and  _84
REMARK   38  A    between atoms: _84  and  _85
REMARK   39  A    between atoms: _88  and  _90
REMARK   40  A    between atoms: _90  and  _91
REMARK   41  A    between atoms: _90  and  _93
REMARK   42  A    between atoms: _93  and  _94
REMARK   43  A    between atoms: _94  and  _95
REMARK   44  A    between atoms: _95  and  _96
REMARK   45  A    between atoms: _96  and  _97
REMARK   46  A    between atoms: _101  and  _103
REMARK   47  A    between atoms: _103  and  _104
REMARK   48  A    between atoms: _103  and  _106
REMARK   49  A    between atoms: _106  and  _107
REMARK   50  A    between atoms: _110  and  _112
REMARK   51  A    between atoms: _112  and  _113
REMARK   52  A    between atoms: _112  and  _115
REMARK   53  A    between atoms: _115  and  _116
REMARK   54  A    between atoms: _119  and  _121
REMARK   55  A    between atoms: _121  and  _122
REMARK   56  A    between atoms: _121  and  _124
REMARK   57  A    between atoms: _124  and  _125
REMARK   58  A    between atoms: _128  and  _130
REMARK   59  A    between atoms: _130  and  _131
REMARK   60  A    between atoms: _130  and  _133
REMARK   61  A    between atoms: _133  and  _134
REMARK   62  A    between atoms: _134  and  _135
REMARK   63  A    between atoms: _135  and  _136
REMARK   64  A    between atoms: _136  and  _137
REMARK   65  A    between atoms: _141  and  _143
REMARK   66  A    between atoms: _143  and  _144
REMARK   67  A    between atoms: _143  and  _146
REMARK   68  A    between atoms: _146  and  _147
REMARK   69  A    between atoms: _147  and  _148
REMARK   70  A    between atoms: _148  and  _149
REMARK   71  A    between atoms: _158  and  _160
REMARK   72  A    between atoms: _160  and  _161
REMARK   73  A    between atoms: _160  and  _163
REMARK   74  A    between atoms: _166  and  _168
REMARK   75  A    between atoms: _168  and  _169
REMARK   76  A    between atoms: _168  and  _171
REMARK   77  A    between atoms: _171  and  _172
REMARK   78  A    between atoms: _172  and  _173
REMARK   79  A    between atoms: _178  and  _180
REMARK   80  A    between atoms: _180  and  _181
REMARK   81  A    between atoms: _180  and  _183
REMARK   82  A    between atoms: _183  and  _184
REMARK   83  A    between atoms: _184  and  _185
REMARK   84  A    between atoms: _188  and  _190
REMARK   85  A    between atoms: _190  and  _191
REMARK   86  A    between atoms: _190  and  _193
REMARK   87  A    between atoms: _193  and  _194
REMARK   88  A    between atoms: _194  and  _195
REMARK   89  A    between atoms: _198  and  _200
REMARK   90  A    between atoms: _200  and  _201
REMARK   91  A    between atoms: _204  and  _206
REMARK   92  A    between atoms: _206  and  _207
REMARK   93  A    between atoms: _209  and  _211
REMARK   94  A    between atoms: _211  and  _212
REMARK   95  A    between atoms: _212  and  _213
REMARK   96  A    between atoms: _212  and  _214
REMARK   97  A    between atoms: _214  and  _216
REMARK   98  A    between atoms: _216  and  _217
REMARK   99  A    between atoms: _216  and  _219
REMARK  100  A    between atoms: _219  and  _220
REMARK  101  A    between atoms: _223  and  _225
REMARK  102  A    between atoms: _225  and  _226
REMARK  103  A    between atoms: _225  and  _228
REMARK  104  A    between atoms: _228  and  _229
REMARK  105  A    between atoms: _232  and  _234
REMARK  106  A    between atoms: _234  and  _235
REMARK  107  A    between atoms: _234  and  _237
REMARK  108  A    between atoms: _237  and  _238
REMARK  109  A    between atoms: _238  and  _239
REMARK  110  A    between atoms: _244  and  _246
REMARK  111  A    between atoms: _246  and  _247
REMARK  112  A    between atoms: _246  and  _249
REMARK  113  A    between atoms: _249  and  _250
REMARK  114  A    between atoms: _250  and  _251
REMARK  115  A    between atoms: _256  and  _258
REMARK  116  A    between atoms: _258  and  _259
REMARK  117  A    between atoms: _258  and  _261
REMARK  118  A    between atoms: _261  and  _262
REMARK  119  A    between atoms: _265  and  _267
REMARK  120  A    between atoms: _267  and  _268
REMARK  121  A    between atoms: _267  and  _270
REMARK  122  A    between atoms: _270  and  _271
REMARK  123  A    between atoms: _275  and  _276
REMARK  124  A    between atoms: _281  and  _283
REMARK  125  A    between atoms: _283  and  _284
REMARK  126  A    between atoms: _286  and  _288
REMARK  127  A    between atoms: _288  and  _289
REMARK  128  A    between atoms: _288  and  _291
REMARK  129  A    between atoms: _291  and  _292
REMARK  130  A    between atoms: _297  and  _299
REMARK  131  A    between atoms: _299  and  _300
REMARK  132  A    between atoms: _299  and  _302
REMARK  133  A    between atoms: _302  and  _303
REMARK  134  A    between atoms: _303  and  _304
REMARK  135  A    between atoms: _307  and  _309
REMARK  136  A    between atoms: _309  and  _310
REMARK  137  A    between atoms: _309  and  _312
REMARK  138  A    between atoms: _312  and  _313
REMARK  139  A    between atoms: _319  and  _321
REMARK  140  A    between atoms: _321  and  _322
REMARK  141  A    between atoms: _321  and  _324
REMARK  142  A    between atoms: _324  and  _325
REMARK  143  A    between atoms: _325  and  _326
REMARK  144  A    between atoms: _326  and  _327
REMARK  145  A    between atoms: _336  and  _338
REMARK  146  A    between atoms: _338  and  _339
REMARK  147  A    between atoms: _338  and  _341
REMARK  148  A    between atoms: _344  and  _346
REMARK  149  A    between atoms: _346  and  _347
REMARK  150  A    between atoms: _346  and  _349
REMARK  151  A    between atoms: _349  and  _350
REMARK  152  A    between atoms: _353  and  _355
REMARK  153  A    between atoms: _355  and  _356
REMARK  154  A    between atoms: _355  and  _358
REMARK  155  A    between atoms: _358  and  _359
REMARK  156  A    between atoms: _362  and  _364
REMARK  157  A    between atoms: _364  and  _365
REMARK  158  A    between atoms: _364  and  _367
REMARK  159  A    between atoms: _367  and  _368
REMARK  160  A    between atoms: _368  and  _369
REMARK  161  A    between atoms: _371  and  _373
REMARK  162  A    between atoms: _373  and  _374
REMARK  163  A    between atoms: _373  and  _376
REMARK  164  A    between atoms: _376  and  _377
REMARK  165  A    between atoms: _377  and  _378
REMARK  166  A    between atoms: _383  and  _385
REMARK  167  A    between atoms: _385  and  _386
REMARK  168  A    between atoms: _385  and  _388
REMARK  169  A    between atoms: _388  and  _389
REMARK  170  A    between atoms: _392  and  _394
REMARK  171  A    between atoms: _394  and  _395
REMARK  172  A    between atoms: _394  and  _397
REMARK  173  A    between atoms: _397  and  _398
REMARK  174  A    between atoms: _403  and  _405
REMARK  175  A    between atoms: _405  and  _406
REMARK  176  A    between atoms: _405  and  _408
REMARK  177  A    between atoms: _408  and  _409
REMARK  178  A    between atoms: _409  and  _410
REMARK  179  A    between atoms: _410  and  _411
REMARK  180  A    between atoms: _411  and  _412
REMARK  181  A    between atoms: _416  and  _418
REMARK  182  A    between atoms: _418  and  _419
REMARK  183  A    between atoms: _418  and  _421
REMARK  184  A    between atoms: _421  and  _422
REMARK  185  A    between atoms: _425  and  _427
REMARK  186  A    between atoms: _427  and  _428
REMARK  187  A    between atoms: _427  and  _430
REMARK  188  A    between atoms: _430  and  _431
REMARK  189  A    between atoms: _434  and  _436
REMARK  190  A    between atoms: _436  and  _437
REMARK  191  A    between atoms: _436  and  _439
REMARK  192  A    between atoms: _439  and  _440
REMARK  193  A    between atoms: _440  and  _441
REMARK  194  A    between atoms: _441  and  _442
REMARK  195  A    between atoms: _451  and  _453
REMARK  196  A    between atoms: _453  and  _454
REMARK  197  A    between atoms: _453  and  _456
REMARK  198  A    between atoms: _456  and  _457
REMARK  199  A    between atoms: _460  and  _462
REMARK  200  A    between atoms: _462  and  _463
REMARK  201  A    between atoms: _462  and  _465
REMARK  202  A    between atoms: _465  and  _466
REMARK  203  A    between atoms: _469  and  _471
REMARK  204  A    between atoms: _471  and  _472
REMARK  205  A    between atoms: _471  and  _474
REMARK  206  A    between atoms: _474  and  _475
REMARK  207  A    between atoms: _477  and  _479
REMARK  208  A    between atoms: _479  and  _480
REMARK  209  A    between atoms: _483  and  _485
REMARK  210  A    between atoms: _485  and  _486
REMARK  211  A    between atoms: _485  and  _488
REMARK  212  A    between atoms: _488  and  _489
REMARK  213  A    between atoms: _494  and  _496
REMARK  214  A    between atoms: _496  and  _497
REMARK  215  A    between atoms: _496  and  _499
REMARK  216  A    between atoms: _499  and  _500
REMARK  217  A    between atoms: _503  and  _505
REMARK  218  A    between atoms: _505  and  _506
REMARK  219  A    between atoms: _508  and  _510
REMARK  220  A    between atoms: _510  and  _511
REMARK  221  A    between atoms: _510  and  _513
REMARK  222  A    between atoms: _513  and  _514
REMARK  223  A    between atoms: _514  and  _515
REMARK  224  A    between atoms: _518  and  _520
REMARK  225  A    between atoms: _520  and  _521
REMARK  226  A    between atoms: _520  and  _523
REMARK  227  A    between atoms: _523  and  _524
REMARK  228  A    between atoms: _527  and  _529
REMARK  229  A    between atoms: _529  and  _530
REMARK  230  A    between atoms: _529  and  _532
REMARK  231  A    between atoms: _532  and  _533
REMARK  232  A    between atoms: _533  and  _534
REMARK  233  A    between atoms: _534  and  _535
REMARK                            x       y       z     vdW  Elec       q    Type
REMARK                         _______ _______ _______ _____ _____    ______ ____
ROOT
ATOM      1  O   HOH     1     -19.832  12.683  12.700  0.00  0.00    +0.000 OA
ENDROOT
TORSDOF 0
REMARK  Name = ../refined-set-2016/4ncn/4ncn_pocket.pdb
REMARK  233 active torsions:
REMARK  status: ('A' for Active; 'I' for Inactive)
REMARK    1  A    between atoms: _1  and  _3
REMARK    2  A    between atoms: _3  and  _4
REMARK    3  A    between atoms: _3  and  _6
REMARK    4  A    between atoms: _6  and  _7
REMARK    5  A    between atoms: _10  and  _12
REMARK    6  A    between atoms: _12  and  _13
REMARK    7  A    between atoms: _12  and  _15
REMARK    8  A    between atoms: _15  and  _16
REMARK    9  A    between atoms: _19  and  _21
REMARK   10  A    between atoms: _21  and  _22
REMARK   11  A    between atoms: _24  and  _26
REMARK   12  A    between atoms: _26  and  _27
REMARK   13  A    between atoms: _26  and  _29
REMARK   14  A    between atoms: _29  and  _30
REMARK   15  A    between atoms: _35  and  _37
REMARK   16  A    between atoms: _37  and  _38
REMARK   17  A    between atoms: _37  and  _40
REMARK   18  A    between atoms: _43  and  _45
REMARK   19  A    between atoms: _45  and  _46
REMARK   20  A    between atoms: _45  and  _48
REMARK   21  A    between atoms: _48  and  _49
REMARK   22  A    between atoms: _52  and  _54
REMARK   23  A    between atoms: _54  and  _55
REMARK   24  A    between atoms: _54  and  _57
REMARK   25  A    between atoms: _57  and  _58
REMARK   26  A    between atoms: _61  and  _63
REMARK   27  A    between atoms: _63  and  _64
REMARK   28  A    between atoms: _66  and  _68
REMARK   29  A    between atoms: _68  and  _69
REMARK   30  A    between atoms: _68  and  _71
REMARK   31  A    between atoms: _71  and  _72
REMARK   32  A    between atoms: _72  and  _73
REMARK   33  A    between atoms: _73  and  _74
REMARK   34  A    between atoms: _74  and  _75
REMARK   35  A    between atoms: _79  and  _81
REMARK   36  A    between atoms: _81  and  _82
REMARK   37  A    between atoms: _81  and  _84
REMARK   38  A    between atoms: _84  and  _85
REMARK   39  A    between atoms: _88  and  _90
REMARK   40  A    between atoms: _90  and  _91
REMARK   41  A    between atoms: _90  and  _93
REMARK   42  A    between atoms: _93  and  _94
REMARK   43  A    between atoms: _94  and  _95
REMARK   44  A    between atoms: _95  and  _96
REMARK   45  A    between atoms: _96  and  _97
REMARK   46  A    between atoms: _101  and  _103
REMARK   47  A    between atoms: _103  and  _104
REMARK   48  A    between atoms: _103  and  _106
REMARK   49  A    between atoms: _106  and  _107
REMARK   50  A    between atoms: _110  and  _112
REMARK   51  A    between atoms: _112  and  _113
REMARK   52  A    between atoms: _112  and  _115
REMARK   53  A    between atoms: _115  and  _116
REMARK   54  A    between atoms: _119  and  _121
REMARK   55  A    between atoms: _121  and  _122
REMARK   56  A    between atoms: _121  and  _124
REMARK   57  A    between atoms: _124  and  _125
REMARK   58  A    between atoms: _128  and  _130
REMARK   59  A    between atoms: _130  and  _131
REMARK   60  A    between atoms: _130  and  _133
REMARK   61  A    between atoms: _133  and  _134
REMARK   62  A    between atoms: _134  and  _135
REMARK   63  A    between atoms: _135  and  _136
REMARK   64  A    between atoms: _136  and  _137
REMARK   65  A    between atoms: _141  and  _143
REMARK   66  A    between atoms: _143  and  _144
REMARK   67  A    between atoms: _143  and  _146
REMARK   68  A    between atoms: _146  and  _147
REMARK   69  A    between atoms: _147  and  _148
REMARK   70  A    between atoms: _148  and  _149
REMARK   71  A    between atoms: _158  and  _160
REMARK   72  A    between atoms: _160  and  _161
REMARK   73  A    between atoms: _160  and  _163
REMARK   74  A    between atoms: _166  and  _168
REMARK   75  A    between atoms: _168  and  _169
REMARK   76  A    between atoms: _168  and  _171
REMARK   77  A    between atoms: _171  and  _172
REMARK   78  A    between atoms: _172  and  _173
REMARK   79  A    between atoms: _178  and  _180
REMARK   80  A    between atoms: _180  and  _181
REMARK   81  A    between atoms: _180  and  _183
REMARK   82  A    between atoms: _183  and  _184
REMARK   83  A    between atoms: _184  and  _185
REMARK   84  A    between atoms: _188  and  _190
REMARK   85  A    between atoms: _190  and  _191
REMARK   86  A    between atoms: _190  and  _193
REMARK   87  A    between atoms: _193  and  _194
REMARK   88  A    between atoms: _194  and  _195
REMARK   89  A    between atoms: _198  and  _200
REMARK   90  A    between atoms: _200  and  _201
REMARK   91  A    between atoms: _204  and  _206
REMARK   92  A    between atoms: _206  and  _207
REMARK   93  A    between atoms: _209  and  _211
REMARK   94  A    between atoms: _211  and  _212
REMARK   95  A    between atoms: _212  and  _213
REMARK   96  A    between atoms: _212  and  _214
REMARK   97  A    between atoms: _214  and  _216
REMARK   98  A    between atoms: _216  and  _217
REMARK   99  A    between atoms: _216  and  _219
REMARK  100  A    between atoms: _219  and  _220
REMARK  101  A    between atoms: _223  and  _225
REMARK  102  A    between atoms: _225  and  _226
REMARK  103  A    between atoms: _225  and  _228
REMARK  104  A    between atoms: _228  and  _229
REMARK  105  A    between atoms: _232  and  _234
REMARK  106  A    between atoms: _234  and  _235
REMARK  107  A    between atoms: _234  and  _237
REMARK  108  A    between atoms: _237  and  _238
REMARK  109  A    between atoms: _238  and  _239
REMARK  110  A    between atoms: _244  and  _246
REMARK  111  A    between atoms: _246  and  _247
REMARK  112  A    between atoms: _246  and  _249
REMARK  113  A    between atoms: _249  and  _250
REMARK  114  A    between atoms: _250  and  _251
REMARK  115  A    between atoms: _256  and  _258
REMARK  116  A    between atoms: _258  and  _259
REMARK  117  A    between atoms: _258  and  _261
REMARK  118  A    between atoms: _261  and  _262
REMARK  119  A    between atoms: _265  and  _267
REMARK  120  A    between atoms: _267  and  _268
REMARK  121  A    between atoms: _267  and  _270
REMARK  122  A    between atoms: _270  and  _271
REMARK  123  A    between atoms: _275  and  _276
REMARK  124  A    between atoms: _281  and  _283
REMARK  125  A    between atoms: _283  and  _284
REMARK  126  A    between atoms: _286  and  _288
REMARK  127  A    between atoms: _288  and  _289
REMARK  128  A    between atoms: _288  and  _291
REMARK  129  A    between atoms: _291  and  _292
REMARK  130  A    between atoms: _297  and  _299
REMARK  131  A    between atoms: _299  and  _300
REMARK  132  A    between atoms: _299  and  _302
REMARK  133  A    between atoms: _302  and  _303
REMARK  134  A    between atoms: _303  and  _304
REMARK  135  A    between atoms: _307  and  _309
REMARK  136  A    between atoms: _309  and  _310
REMARK  137  A    between atoms: _309  and  _312
REMARK  138  A    between atoms: _312  and  _313
REMARK  139  A    between atoms: _319  and  _321
REMARK  140  A    between atoms: _321  and  _322
REMARK  141  A    between atoms: _321  and  _324
REMARK  142  A    between atoms: _324  and  _325
REMARK  143  A    between atoms: _325  and  _326
REMARK  144  A    between atoms: _326  and  _327
REMARK  145  A    between atoms: _336  and  _338
REMARK  146  A    between atoms: _338  and  _339
REMARK  147  A    between atoms: _338  and  _341
REMARK  148  A    between atoms: _344  and  _346
REMARK  149  A    between atoms: _346  and  _347
REMARK  150  A    between atoms: _346  and  _349
REMARK  151  A    between atoms: _349  and  _350
REMARK  152  A    between atoms: _353  and  _355
REMARK  153  A    between atoms: _355  and  _356
REMARK  154  A    between atoms: _355  and  _358
REMARK  155  A    between atoms: _358  and  _359
REMARK  156  A    between atoms: _362  and  _364
REMARK  157  A    between atoms: _364  and  _365
REMARK  158  A    between atoms: _364  and  _367
REMARK  159  A    between atoms: _367  and  _368
REMARK  160  A    between atoms: _368  and  _369
REMARK  161  A    between atoms: _371  and  _373
REMARK  162  A    between atoms: _373  and  _374
REMARK  163  A    between atoms: _373  and  _376
REMARK  164  A    between atoms: _376  and  _377
REMARK  165  A    between atoms: _377  and  _378
REMARK  166  A    between atoms: _383  and  _385
REMARK  167  A    between atoms: _385  and  _386
REMARK  168  A    between atoms: _385  and  _388
REMARK  169  A    between atoms: _388  and  _389
REMARK  170  A    between atoms: _392  and  _394
REMARK  171  A    between atoms: _394  and  _395
REMARK  172  A    between atoms: _394  and  _397
REMARK  173  A    between atoms: _397  and  _398
REMARK  174  A    between atoms: _403  and  _405
REMARK  175  A    between atoms: _405  and  _406
REMARK  176  A    between atoms: _405  and  _408
REMARK  177  A    between atoms: _408  and  _409
REMARK  178  A    between atoms: _409  and  _410
REMARK  179  A    between atoms: _410  and  _411
REMARK  180  A    between atoms: _411  and  _412
REMARK  181  A    between atoms: _416  and  _418
REMARK  182  A    between atoms: _418  and  _419
REMARK  183  A    between atoms: _418  and  _421
REMARK  184  A    between atoms: _421  and  _422
REMARK  185  A    between atoms: _425  and  _427
REMARK  186  A    between atoms: _427  and  _428
REMARK  187  A    between atoms: _427  and  _430
REMARK  188  A    between atoms: _430  and  _431
REMARK  189  A    between atoms: _434  and  _436
REMARK  190  A    between atoms: _436  and  _437
REMARK  191  A    between atoms: _436  and  _439
REMARK  192  A    between atoms: _439  and  _440
REMARK  193  A    between atoms: _440  and  _441
REMARK  194  A    between atoms: _441  and  _442
REMARK  195  A    between atoms: _451  and  _453
REMARK  196  A    between atoms: _453  and  _454
REMARK  197  A    between atoms: _453  and  _456
REMARK  198  A    between atoms: _456  and  _457
REMARK  199  A    between atoms: _460  and  _462
REMARK  200  A    between atoms: _462  and  _463
REMARK  201  A    between atoms: _462  and  _465
REMARK  202  A    between atoms: _465  and  _466
REMARK  203  A    between atoms: _469  and  _471
REMARK  204  A    between atoms: _471  and  _472
REMARK  205  A    between atoms: _471  and  _474
REMARK  206  A    between atoms: _474  and  _475
REMARK  207  A    between atoms: _477  and  _479
REMARK  208  A    between atoms: _479  and  _480
REMARK  209  A    between atoms: _483  and  _485
REMARK  210  A    between atoms: _485  and  _486
REMARK  211  A    between atoms: _485  and  _488
REMARK  212  A    between atoms: _488  and  _489
REMARK  213  A    between atoms: _494  and  _496
REMARK  214  A    between atoms: _496  and  _497
REMARK  215  A    between atoms: _496  and  _499
REMARK  216  A    between atoms: _499  and  _500
REMARK  217  A    between atoms: _503  and  _505
REMARK  218  A    between atoms: _505  and  _506
REMARK  219  A    between atoms: _508  and  _510
REMARK  220  A    between atoms: _510  and  _511
REMARK  221  A    between atoms: _510  and  _513
REMARK  222  A    between atoms: _513  and  _514
REMARK  223  A    between atoms: _514  and  _515
REMARK  224  A    between atoms: _518  and  _520
REMARK  225  A    between atoms: _520  and  _521
REMARK  226  A    between atoms: _520  and  _523
REMARK  227  A    between atoms: _523  and  _524
REMARK  228  A    between atoms: _527  and  _529
REMARK  229  A    between atoms: _529  and  _530
REMARK  230  A    between atoms: _529  and  _532
REMARK  231  A    between atoms: _532  and  _533
REMARK  232  A    between atoms: _533  and  _534
REMARK  233  A    between atoms: _534  and  _535
REMARK                            x       y       z     vdW  Elec       q    Type
REMARK                         _______ _______ _______ _____ _____    ______ ____
ROOT
ATOM      1  O   HOH     1     -17.939   8.773  15.704  0.00  0.00    +0.000 OA
ENDROOT
TORSDOF 0
REMARK  Name = ../refined-set-2016/4ncn/4ncn_pocket.pdb
REMARK  233 active torsions:
REMARK  status: ('A' for Active; 'I' for Inactive)
REMARK    1  A    between atoms: _1  and  _3
REMARK    2  A    between atoms: _3  and  _4
REMARK    3  A    between atoms: _3  and  _6
REMARK    4  A    between atoms: _6  and  _7
REMARK    5  A    between atoms: _10  and  _12
REMARK    6  A    between atoms: _12  and  _13
REMARK    7  A    between atoms: _12  and  _15
REMARK    8  A    between atoms: _15  and  _16
REMARK    9  A    between atoms: _19  and  _21
REMARK   10  A    between atoms: _21  and  _22
REMARK   11  A    between atoms: _24  and  _26
REMARK   12  A    between atoms: _26  and  _27
REMARK   13  A    between atoms: _26  and  _29
REMARK   14  A    between atoms: _29  and  _30
REMARK   15  A    between atoms: _35  and  _37
REMARK   16  A    between atoms: _37  and  _38
REMARK   17  A    between atoms: _37  and  _40
REMARK   18  A    between atoms: _43  and  _45
REMARK   19  A    between atoms: _45  and  _46
REMARK   20  A    between atoms: _45  and  _48
REMARK   21  A    between atoms: _48  and  _49
REMARK   22  A    between atoms: _52  and  _54
REMARK   23  A    between atoms: _54  and  _55
REMARK   24  A    between atoms: _54  and  _57
REMARK   25  A    between atoms: _57  and  _58
REMARK   26  A    between atoms: _61  and  _63
REMARK   27  A    between atoms: _63  and  _64
REMARK   28  A    between atoms: _66  and  _68
REMARK   29  A    between atoms: _68  and  _69
REMARK   30  A    between atoms: _68  and  _71
REMARK   31  A    between atoms: _71  and  _72
REMARK   32  A    between atoms: _72  and  _73
REMARK   33  A    between atoms: _73  and  _74
REMARK   34  A    between atoms: _74  and  _75
REMARK   35  A    between atoms: _79  and  _81
REMARK   36  A    between atoms: _81  and  _82
REMARK   37  A    between atoms: _81  and  _84
REMARK   38  A    between atoms: _84  and  _85
REMARK   39  A    between atoms: _88  and  _90
REMARK   40  A    between atoms: _90  and  _91
REMARK   41  A    between atoms: _90  and  _93
REMARK   42  A    between atoms: _93  and  _94
REMARK   43  A    between atoms: _94  and  _95
REMARK   44  A    between atoms: _95  and  _96
REMARK   45  A    between atoms: _96  and  _97
REMARK   46  A    between atoms: _101  and  _103
REMARK   47  A    between atoms: _103  and  _104
REMARK   48  A    between atoms: _103  and  _106
REMARK   49  A    between atoms: _106  and  _107
REMARK   50  A    between atoms: _110  and  _112
REMARK   51  A    between atoms: _112  and  _113
REMARK   52  A    between atoms: _112  and  _115
REMARK   53  A    between atoms: _115  and  _116
REMARK   54  A    between atoms: _119  and  _121
REMARK   55  A    between atoms: _121  and  _122
REMARK   56  A    between atoms: _121  and  _124
REMARK   57  A    between atoms: _124  and  _125
REMARK   58  A    between atoms: _128  and  _130
REMARK   59  A    between atoms: _130  and  _131
REMARK   60  A    between atoms: _130  and  _133
REMARK   61  A    between atoms: _133  and  _134
REMARK   62  A    between atoms: _134  and  _135
REMARK   63  A    between atoms: _135  and  _136
REMARK   64  A    between atoms: _136  and  _137
REMARK   65  A    between atoms: _141  and  _143
REMARK   66  A    between atoms: _143  and  _144
REMARK   67  A    between atoms: _143  and  _146
REMARK   68  A    between atoms: _146  and  _147
REMARK   69  A    between atoms: _147  and  _148
REMARK   70  A    between atoms: _148  and  _149
REMARK   71  A    between atoms: _158  and  _160
REMARK   72  A    between atoms: _160  and  _161
REMARK   73  A    between atoms: _160  and  _163
REMARK   74  A    between atoms: _166  and  _168
REMARK   75  A    between atoms: _168  and  _169
REMARK   76  A    between atoms: _168  and  _171
REMARK   77  A    between atoms: _171  and  _172
REMARK   78  A    between atoms: _172  and  _173
REMARK   79  A    between atoms: _178  and  _180
REMARK   80  A    between atoms: _180  and  _181
REMARK   81  A    between atoms: _180  and  _183
REMARK   82  A    between atoms: _183  and  _184
REMARK   83  A    between atoms: _184  and  _185
REMARK   84  A    between atoms: _188  and  _190
REMARK   85  A    between atoms: _190  and  _191
REMARK   86  A    between atoms: _190  and  _193
REMARK   87  A    between atoms: _193  and  _194
REMARK   88  A    between atoms: _194  and  _195
REMARK   89  A    between atoms: _198  and  _200
REMARK   90  A    between atoms: _200  and  _201
REMARK   91  A    between atoms: _204  and  _206
REMARK   92  A    between atoms: _206  and  _207
REMARK   93  A    between atoms: _209  and  _211
REMARK   94  A    between atoms: _211  and  _212
REMARK   95  A    between atoms: _212  and  _213
REMARK   96  A    between atoms: _212  and  _214
REMARK   97  A    between atoms: _214  and  _216
REMARK   98  A    between atoms: _216  and  _217
REMARK   99  A    between atoms: _216  and  _219
REMARK  100  A    between atoms: _219  and  _220
REMARK  101  A    between atoms: _223  and  _225
REMARK  102  A    between atoms: _225  and  _226
REMARK  103  A    between atoms: _225  and  _228
REMARK  104  A    between atoms: _228  and  _229
REMARK  105  A    between atoms: _232  and  _234
REMARK  106  A    between atoms: _234  and  _235
REMARK  107  A    between atoms: _234  and  _237
REMARK  108  A    between atoms: _237  and  _238
REMARK  109  A    between atoms: _238  and  _239
REMARK  110  A    between atoms: _244  and  _246
REMARK  111  A    between atoms: _246  and  _247
REMARK  112  A    between atoms: _246  and  _249
REMARK  113  A    between atoms: _249  and  _250
REMARK  114  A    between atoms: _250  and  _251
REMARK  115  A    between atoms: _256  and  _258
REMARK  116  A    between atoms: _258  and  _259
REMARK  117  A    between atoms: _258  and  _261
REMARK  118  A    between atoms: _261  and  _262
REMARK  119  A    between atoms: _265  and  _267
REMARK  120  A    between atoms: _267  and  _268
REMARK  121  A    between atoms: _267  and  _270
REMARK  122  A    between atoms: _270  and  _271
REMARK  123  A    between atoms: _275  and  _276
REMARK  124  A    between atoms: _281  and  _283
REMARK  125  A    between atoms: _283  and  _284
REMARK  126  A    between atoms: _286  and  _288
REMARK  127  A    between atoms: _288  and  _289
REMARK  128  A    between atoms: _288  and  _291
REMARK  129  A    between atoms: _291  and  _292
REMARK  130  A    between atoms: _297  and  _299
REMARK  131  A    between atoms: _299  and  _300
REMARK  132  A    between atoms: _299  and  _302
REMARK  133  A    between atoms: _302  and  _303
REMARK  134  A    between atoms: _303  and  _304
REMARK  135  A    between atoms: _307  and  _309
REMARK  136  A    between atoms: _309  and  _310
REMARK  137  A    between atoms: _309  and  _312
REMARK  138  A    between atoms: _312  and  _313
REMARK  139  A    between atoms: _319  and  _321
REMARK  140  A    between atoms: _321  and  _322
REMARK  141  A    between atoms: _321  and  _324
REMARK  142  A    between atoms: _324  and  _325
REMARK  143  A    between atoms: _325  and  _326
REMARK  144  A    between atoms: _326  and  _327
REMARK  145  A    between atoms: _336  and  _338
REMARK  146  A    between atoms: _338  and  _339
REMARK  147  A    between atoms: _338  and  _341
REMARK  148  A    between atoms: _344  and  _346
REMARK  149  A    between atoms: _346  and  _347
REMARK  150  A    between atoms: _346  and  _349
REMARK  151  A    between atoms: _349  and  _350
REMARK  152  A    between atoms: _353  and  _355
REMARK  153  A    between atoms: _355  and  _356
REMARK  154  A    between atoms: _355  and  _358
REMARK  155  A    between atoms: _358  and  _359
REMARK  156  A    between atoms: _362  and  _364
REMARK  157  A    between atoms: _364  and  _365
REMARK  158  A    between atoms: _364  and  _367
REMARK  159  A    between atoms: _367  and  _368
REMARK  160  A    between atoms: _368  and  _369
REMARK  161  A    between atoms: _371  and  _373
REMARK  162  A    between atoms: _373  and  _374
REMARK  163  A    between atoms: _373  and  _376
REMARK  164  A    between atoms: _376  and  _377
REMARK  165  A    between atoms: _377  and  _378
REMARK  166  A    between atoms: _383  and  _385
REMARK  167  A    between atoms: _385  and  _386
REMARK  168  A    between atoms: _385  and  _388
REMARK  169  A    between atoms: _388  and  _389
REMARK  170  A    between atoms: _392  and  _394
REMARK  171  A    between atoms: _394  and  _395
REMARK  172  A    between atoms: _394  and  _397
REMARK  173  A    between atoms: _397  and  _398
REMARK  174  A    between atoms: _403  and  _405
REMARK  175  A    between atoms: _405  and  _406
REMARK  176  A    between atoms: _405  and  _408
REMARK  177  A    between atoms: _408  and  _409
REMARK  178  A    between atoms: _409  and  _410
REMARK  179  A    between atoms: _410  and  _411
REMARK  180  A    between atoms: _411  and  _412
REMARK  181  A    between atoms: _416  and  _418
REMARK  182  A    between atoms: _418  and  _419
REMARK  183  A    between atoms: _418  and  _421
REMARK  184  A    between atoms: _421  and  _422
REMARK  185  A    between atoms: _425  and  _427
REMARK  186  A    between atoms: _427  and  _428
REMARK  187  A    between atoms: _427  and  _430
REMARK  188  A    between atoms: _430  and  _431
REMARK  189  A    between atoms: _434  and  _436
REMARK  190  A    between atoms: _436  and  _437
REMARK  191  A    between atoms: _436  and  _439
REMARK  192  A    between atoms: _439  and  _440
REMARK  193  A    between atoms: _440  and  _441
REMARK  194  A    between atoms: _441  and  _442
REMARK  195  A    between atoms: _451  and  _453
REMARK  196  A    between atoms: _453  and  _454
REMARK  197  A    between atoms: _453  and  _456
REMARK  198  A    between atoms: _456  and  _457
REMARK  199  A    between atoms: _460  and  _462
REMARK  200  A    between atoms: _462  and  _463
REMARK  201  A    between atoms: _462  and  _465
REMARK  202  A    between atoms: _465  and  _466
REMARK  203  A    between atoms: _469  and  _471
REMARK  204  A    between atoms: _471  and  _472
REMARK  205  A    between atoms: _471  and  _474
REMARK  206  A    between atoms: _474  and  _475
REMARK  207  A    between atoms: _477  and  _479
REMARK  208  A    between atoms: _479  and  _480
REMARK  209  A    between atoms: _483  and  _485
REMARK  210  A    between atoms: _485  and  _486
REMARK  211  A    between atoms: _485  and  _488
REMARK  212  A    between atoms: _488  and  _489
REMARK  213  A    between atoms: _494  and  _496
REMARK  214  A    between atoms: _496  and  _497
REMARK  215  A    between atoms: _496  and  _499
REMARK  216  A    between atoms: _499  and  _500
REMARK  217  A    between atoms: _503  and  _505
REMARK  218  A    between atoms: _505  and  _506
REMARK  219  A    between atoms: _508  and  _510
REMARK  220  A    between atoms: _510  and  _511
REMARK  221  A    between atoms: _510  and  _513
REMARK  222  A    between atoms: _513  and  _514
REMARK  223  A    between atoms: _514  and  _515
REMARK  224  A    between atoms: _518  and  _520
REMARK  225  A    between atoms: _520  and  _521
REMARK  226  A    between atoms: _520  and  _523
REMARK  227  A    between atoms: _523  and  _524
REMARK  228  A    between atoms: _527  and  _529
REMARK  229  A    between atoms: _529  and  _530
REMARK  230  A    between atoms: _529  and  _532
REMARK  231  A    between atoms: _532  and  _533
REMARK  232  A    between atoms: _533  and  _534
REMARK  233  A    between atoms: _534  and  _535
REMARK                            x       y       z     vdW  Elec       q    Type
REMARK                         _______ _______ _______ _____ _____    ______ ____
ROOT
ATOM      1  O   HOH     1     -10.952  21.114   2.435  0.00  0.00    +0.000 OA
ENDROOT
TORSDOF 0
REMARK  Name = ../refined-set-2016/4ncn/4ncn_pocket.pdb
REMARK  233 active torsions:
REMARK  status: ('A' for Active; 'I' for Inactive)
REMARK    1  A    between atoms: _1  and  _3
REMARK    2  A    between atoms: _3  and  _4
REMARK    3  A    between atoms: _3  and  _6
REMARK    4  A    between atoms: _6  and  _7
REMARK    5  A    between atoms: _10  and  _12
REMARK    6  A    between atoms: _12  and  _13
REMARK    7  A    between atoms: _12  and  _15
REMARK    8  A    between atoms: _15  and  _16
REMARK    9  A    between atoms: _19  and  _21
REMARK   10  A    between atoms: _21  and  _22
REMARK   11  A    between atoms: _24  and  _26
REMARK   12  A    between atoms: _26  and  _27
REMARK   13  A    between atoms: _26  and  _29
REMARK   14  A    between atoms: _29  and  _30
REMARK   15  A    between atoms: _35  and  _37
REMARK   16  A    between atoms: _37  and  _38
REMARK   17  A    between atoms: _37  and  _40
REMARK   18  A    between atoms: _43  and  _45
REMARK   19  A    between atoms: _45  and  _46
REMARK   20  A    between atoms: _45  and  _48
REMARK   21  A    between atoms: _48  and  _49
REMARK   22  A    between atoms: _52  and  _54
REMARK   23  A    between atoms: _54  and  _55
REMARK   24  A    between atoms: _54  and  _57
REMARK   25  A    between atoms: _57  and  _58
REMARK   26  A    between atoms: _61  and  _63
REMARK   27  A    between atoms: _63  and  _64
REMARK   28  A    between atoms: _66  and  _68
REMARK   29  A    between atoms: _68  and  _69
REMARK   30  A    between atoms: _68  and  _71
REMARK   31  A    between atoms: _71  and  _72
REMARK   32  A    between atoms: _72  and  _73
REMARK   33  A    between atoms: _73  and  _74
REMARK   34  A    between atoms: _74  and  _75
REMARK   35  A    between atoms: _79  and  _81
REMARK   36  A    between atoms: _81  and  _82
REMARK   37  A    between atoms: _81  and  _84
REMARK   38  A    between atoms: _84  and  _85
REMARK   39  A    between atoms: _88  and  _90
REMARK   40  A    between atoms: _90  and  _91
REMARK   41  A    between atoms: _90  and  _93
REMARK   42  A    between atoms: _93  and  _94
REMARK   43  A    between atoms: _94  and  _95
REMARK   44  A    between atoms: _95  and  _96
REMARK   45  A    between atoms: _96  and  _97
REMARK   46  A    between atoms: _101  and  _103
REMARK   47  A    between atoms: _103  and  _104
REMARK   48  A    between atoms: _103  and  _106
REMARK   49  A    between atoms: _106  and  _107
REMARK   50  A    between atoms: _110  and  _112
REMARK   51  A    between atoms: _112  and  _113
REMARK   52  A    between atoms: _112  and  _115
REMARK   53  A    between atoms: _115  and  _116
REMARK   54  A    between atoms: _119  and  _121
REMARK   55  A    between atoms: _121  and  _122
REMARK   56  A    between atoms: _121  and  _124
REMARK   57  A    between atoms: _124  and  _125
REMARK   58  A    between atoms: _128  and  _130
REMARK   59  A    between atoms: _130  and  _131
REMARK   60  A    between atoms: _130  and  _133
REMARK   61  A    between atoms: _133  and  _134
REMARK   62  A    between atoms: _134  and  _135
REMARK   63  A    between atoms: _135  and  _136
REMARK   64  A    between atoms: _136  and  _137
REMARK   65  A    between atoms: _141  and  _143
REMARK   66  A    between atoms: _143  and  _144
REMARK   67  A    between atoms: _143  and  _146
REMARK   68  A    between atoms: _146  and  _147
REMARK   69  A    between atoms: _147  and  _148
REMARK   70  A    between atoms: _148  and  _149
REMARK   71  A    between atoms: _158  and  _160
REMARK   72  A    between atoms: _160  and  _161
REMARK   73  A    between atoms: _160  and  _163
REMARK   74  A    between atoms: _166  and  _168
REMARK   75  A    between atoms: _168  and  _169
REMARK   76  A    between atoms: _168  and  _171
REMARK   77  A    between atoms: _171  and  _172
REMARK   78  A    between atoms: _172  and  _173
REMARK   79  A    between atoms: _178  and  _180
REMARK   80  A    between atoms: _180  and  _181
REMARK   81  A    between atoms: _180  and  _183
REMARK   82  A    between atoms: _183  and  _184
REMARK   83  A    between atoms: _184  and  _185
REMARK   84  A    between atoms: _188  and  _190
REMARK   85  A    between atoms: _190  and  _191
REMARK   86  A    between atoms: _190  and  _193
REMARK   87  A    between atoms: _193  and  _194
REMARK   88  A    between atoms: _194  and  _195
REMARK   89  A    between atoms: _198  and  _200
REMARK   90  A    between atoms: _200  and  _201
REMARK   91  A    between atoms: _204  and  _206
REMARK   92  A    between atoms: _206  and  _207
REMARK   93  A    between atoms: _209  and  _211
REMARK   94  A    between atoms: _211  and  _212
REMARK   95  A    between atoms: _212  and  _213
REMARK   96  A    between atoms: _212  and  _214
REMARK   97  A    between atoms: _214  and  _216
REMARK   98  A    between atoms: _216  and  _217
REMARK   99  A    between atoms: _216  and  _219
REMARK  100  A    between atoms: _219  and  _220
REMARK  101  A    between atoms: _223  and  _225
REMARK  102  A    between atoms: _225  and  _226
REMARK  103  A    between atoms: _225  and  _228
REMARK  104  A    between atoms: _228  and  _229
REMARK  105  A    between atoms: _232  and  _234
REMARK  106  A    between atoms: _234  and  _235
REMARK  107  A    between atoms: _234  and  _237
REMARK  108  A    between atoms: _237  and  _238
REMARK  109  A    between atoms: _238  and  _239
REMARK  110  A    between atoms: _244  and  _246
REMARK  111  A    between atoms: _246  and  _247
REMARK  112  A    between atoms: _246  and  _249
REMARK  113  A    between atoms: _249  and  _250
REMARK  114  A    between atoms: _250  and  _251
REMARK  115  A    between atoms: _256  and  _258
REMARK  116  A    between atoms: _258  and  _259
REMARK  117  A    between atoms: _258  and  _261
REMARK  118  A    between atoms: _261  and  _262
REMARK  119  A    between atoms: _265  and  _267
REMARK  120  A    between atoms: _267  and  _268
REMARK  121  A    between atoms: _267  and  _270
REMARK  122  A    between atoms: _270  and  _271
REMARK  123  A    between atoms: _275  and  _276
REMARK  124  A    between atoms: _281  and  _283
REMARK  125  A    between atoms: _283  and  _284
REMARK  126  A    between atoms: _286  and  _288
REMARK  127  A    between atoms: _288  and  _289
REMARK  128  A    between atoms: _288  and  _291
REMARK  129  A    between atoms: _291  and  _292
REMARK  130  A    between atoms: _297  and  _299
REMARK  131  A    between atoms: _299  and  _300
REMARK  132  A    between atoms: _299  and  _302
REMARK  133  A    between atoms: _302  and  _303
REMARK  134  A    between atoms: _303  and  _304
REMARK  135  A    between atoms: _307  and  _309
REMARK  136  A    between atoms: _309  and  _310
REMARK  137  A    between atoms: _309  and  _312
REMARK  138  A    between atoms: _312  and  _313
REMARK  139  A    between atoms: _319  and  _321
REMARK  140  A    between atoms: _321  and  _322
REMARK  141  A    between atoms: _321  and  _324
REMARK  142  A    between atoms: _324  and  _325
REMARK  143  A    between atoms: _325  and  _326
REMARK  144  A    between atoms: _326  and  _327
REMARK  145  A    between atoms: _336  and  _338
REMARK  146  A    between atoms: _338  and  _339
REMARK  147  A    between atoms: _338  and  _341
REMARK  148  A    between atoms: _344  and  _346
REMARK  149  A    between atoms: _346  and  _347
REMARK  150  A    between atoms: _346  and  _349
REMARK  151  A    between atoms: _349  and  _350
REMARK  152  A    between atoms: _353  and  _355
REMARK  153  A    between atoms: _355  and  _356
REMARK  154  A    between atoms: _355  and  _358
REMARK  155  A    between atoms: _358  and  _359
REMARK  156  A    between atoms: _362  and  _364
REMARK  157  A    between atoms: _364  and  _365
REMARK  158  A    between atoms: _364  and  _367
REMARK  159  A    between atoms: _367  and  _368
REMARK  160  A    between atoms: _368  and  _369
REMARK  161  A    between atoms: _371  and  _373
REMARK  162  A    between atoms: _373  and  _374
REMARK  163  A    between atoms: _373  and  _376
REMARK  164  A    between atoms: _376  and  _377
REMARK  165  A    between atoms: _377  and  _378
REMARK  166  A    between atoms: _383  and  _385
REMARK  167  A    between atoms: _385  and  _386
REMARK  168  A    between atoms: _385  and  _388
REMARK  169  A    between atoms: _388  and  _389
REMARK  170  A    between atoms: _392  and  _394
REMARK  171  A    between atoms: _394  and  _395
REMARK  172  A    between atoms: _394  and  _397
REMARK  173  A    between atoms: _397  and  _398
REMARK  174  A    between atoms: _403  and  _405
REMARK  175  A    between atoms: _405  and  _406
REMARK  176  A    between atoms: _405  and  _408
REMARK  177  A    between atoms: _408  and  _409
REMARK  178  A    between atoms: _409  and  _410
REMARK  179  A    between atoms: _410  and  _411
REMARK  180  A    between atoms: _411  and  _412
REMARK  181  A    between atoms: _416  and  _418
REMARK  182  A    between atoms: _418  and  _419
REMARK  183  A    between atoms: _418  and  _421
REMARK  184  A    between atoms: _421  and  _422
REMARK  185  A    between atoms: _425  and  _427
REMARK  186  A    between atoms: _427  and  _428
REMARK  187  A    between atoms: _427  and  _430
REMARK  188  A    between atoms: _430  and  _431
REMARK  189  A    between atoms: _434  and  _436
REMARK  190  A    between atoms: _436  and  _437
REMARK  191  A    between atoms: _436  and  _439
REMARK  192  A    between atoms: _439  and  _440
REMARK  193  A    between atoms: _440  and  _441
REMARK  194  A    between atoms: _441  and  _442
REMARK  195  A    between atoms: _451  and  _453
REMARK  196  A    between atoms: _453  and  _454
REMARK  197  A    between atoms: _453  and  _456
REMARK  198  A    between atoms: _456  and  _457
REMARK  199  A    between atoms: _460  and  _462
REMARK  200  A    between atoms: _462  and  _463
REMARK  201  A    between atoms: _462  and  _465
REMARK  202  A    between atoms: _465  and  _466
REMARK  203  A    between atoms: _469  and  _471
REMARK  204  A    between atoms: _471  and  _472
REMARK  205  A    between atoms: _471  and  _474
REMARK  206  A    between atoms: _474  and  _475
REMARK  207  A    between atoms: _477  and  _479
REMARK  208  A    between atoms: _479  and  _480
REMARK  209  A    between atoms: _483  and  _485
REMARK  210  A    between atoms: _485  and  _486
REMARK  211  A    between atoms: _485  and  _488
REMARK  212  A    between atoms: _488  and  _489
REMARK  213  A    between atoms: _494  and  _496
REMARK  214  A    between atoms: _496  and  _497
REMARK  215  A    between atoms: _496  and  _499
REMARK  216  A    between atoms: _499  and  _500
REMARK  217  A    between atoms: _503  and  _505
REMARK  218  A    between atoms: _505  and  _506
REMARK  219  A    between atoms: _508  and  _510
REMARK  220  A    between atoms: _510  and  _511
REMARK  221  A    between atoms: _510  and  _513
REMARK  222  A    between atoms: _513  and  _514
REMARK  223  A    between atoms: _514  and  _515
REMARK  224  A    between atoms: _518  and  _520
REMARK  225  A    between atoms: _520  and  _521
REMARK  226  A    between atoms: _520  and  _523
REMARK  227  A    between atoms: _523  and  _524
REMARK  228  A    between atoms: _527  and  _529
REMARK  229  A    between atoms: _529  and  _530
REMARK  230  A    between atoms: _529  and  _532
REMARK  231  A    between atoms: _532  and  _533
REMARK  232  A    between atoms: _533  and  _534
REMARK  233  A    between atoms: _534  and  _535
REMARK                            x       y       z     vdW  Elec       q    Type
REMARK                         _______ _______ _______ _____ _____    ______ ____
ROOT
ATOM      1  O   HOH     1     -18.930  20.798  12.621  0.00  0.00    +0.000 OA
ENDROOT
TORSDOF 0
REMARK  Name = ../refined-set-2016/4ncn/4ncn_pocket.pdb
REMARK  233 active torsions:
REMARK  status: ('A' for Active; 'I' for Inactive)
REMARK    1  A    between atoms: _1  and  _3
REMARK    2  A    between atoms: _3  and  _4
REMARK    3  A    between atoms: _3  and  _6
REMARK    4  A    between atoms: _6  and  _7
REMARK    5  A    between atoms: _10  and  _12
REMARK    6  A    between atoms: _12  and  _13
REMARK    7  A    between atoms: _12  and  _15
REMARK    8  A    between atoms: _15  and  _16
REMARK    9  A    between atoms: _19  and  _21
REMARK   10  A    between atoms: _21  and  _22
REMARK   11  A    between atoms: _24  and  _26
REMARK   12  A    between atoms: _26  and  _27
REMARK   13  A    between atoms: _26  and  _29
REMARK   14  A    between atoms: _29  and  _30
REMARK   15  A    between atoms: _35  and  _37
REMARK   16  A    between atoms: _37  and  _38
REMARK   17  A    between atoms: _37  and  _40
REMARK   18  A    between atoms: _43  and  _45
REMARK   19  A    between atoms: _45  and  _46
REMARK   20  A    between atoms: _45  and  _48
REMARK   21  A    between atoms: _48  and  _49
REMARK   22  A    between atoms: _52  and  _54
REMARK   23  A    between atoms: _54  and  _55
REMARK   24  A    between atoms: _54  and  _57
REMARK   25  A    between atoms: _57  and  _58
REMARK   26  A    between atoms: _61  and  _63
REMARK   27  A    between atoms: _63  and  _64
REMARK   28  A    between atoms: _66  and  _68
REMARK   29  A    between atoms: _68  and  _69
REMARK   30  A    between atoms: _68  and  _71
REMARK   31  A    between atoms: _71  and  _72
REMARK   32  A    between atoms: _72  and  _73
REMARK   33  A    between atoms: _73  and  _74
REMARK   34  A    between atoms: _74  and  _75
REMARK   35  A    between atoms: _79  and  _81
REMARK   36  A    between atoms: _81  and  _82
REMARK   37  A    between atoms: _81  and  _84
REMARK   38  A    between atoms: _84  and  _85
REMARK   39  A    between atoms: _88  and  _90
REMARK   40  A    between atoms: _90  and  _91
REMARK   41  A    between atoms: _90  and  _93
REMARK   42  A    between atoms: _93  and  _94
REMARK   43  A    between atoms: _94  and  _95
REMARK   44  A    between atoms: _95  and  _96
REMARK   45  A    between atoms: _96  and  _97
REMARK   46  A    between atoms: _101  and  _103
REMARK   47  A    between atoms: _103  and  _104
REMARK   48  A    between atoms: _103  and  _106
REMARK   49  A    between atoms: _106  and  _107
REMARK   50  A    between atoms: _110  and  _112
REMARK   51  A    between atoms: _112  and  _113
REMARK   52  A    between atoms: _112  and  _115
REMARK   53  A    between atoms: _115  and  _116
REMARK   54  A    between atoms: _119  and  _121
REMARK   55  A    between atoms: _121  and  _122
REMARK   56  A    between atoms: _121  and  _124
REMARK   57  A    between atoms: _124  and  _125
REMARK   58  A    between atoms: _128  and  _130
REMARK   59  A    between atoms: _130  and  _131
REMARK   60  A    between atoms: _130  and  _133
REMARK   61  A    between atoms: _133  and  _134
REMARK   62  A    between atoms: _134  and  _135
REMARK   63  A    between atoms: _135  and  _136
REMARK   64  A    between atoms: _136  and  _137
REMARK   65  A    between atoms: _141  and  _143
REMARK   66  A    between atoms: _143  and  _144
REMARK   67  A    between atoms: _143  and  _146
REMARK   68  A    between atoms: _146  and  _147
REMARK   69  A    between atoms: _147  and  _148
REMARK   70  A    between atoms: _148  and  _149
REMARK   71  A    between atoms: _158  and  _160
REMARK   72  A    between atoms: _160  and  _161
REMARK   73  A    between atoms: _160  and  _163
REMARK   74  A    between atoms: _166  and  _168
REMARK   75  A    between atoms: _168  and  _169
REMARK   76  A    between atoms: _168  and  _171
REMARK   77  A    between atoms: _171  and  _172
REMARK   78  A    between atoms: _172  and  _173
REMARK   79  A    between atoms: _178  and  _180
REMARK   80  A    between atoms: _180  and  _181
REMARK   81  A    between atoms: _180  and  _183
REMARK   82  A    between atoms: _183  and  _184
REMARK   83  A    between atoms: _184  and  _185
REMARK   84  A    between atoms: _188  and  _190
REMARK   85  A    between atoms: _190  and  _191
REMARK   86  A    between atoms: _190  and  _193
REMARK   87  A    between atoms: _193  and  _194
REMARK   88  A    between atoms: _194  and  _195
REMARK   89  A    between atoms: _198  and  _200
REMARK   90  A    between atoms: _200  and  _201
REMARK   91  A    between atoms: _204  and  _206
REMARK   92  A    between atoms: _206  and  _207
REMARK   93  A    between atoms: _209  and  _211
REMARK   94  A    between atoms: _211  and  _212
REMARK   95  A    between atoms: _212  and  _213
REMARK   96  A    between atoms: _212  and  _214
REMARK   97  A    between atoms: _214  and  _216
REMARK   98  A    between atoms: _216  and  _217
REMARK   99  A    between atoms: _216  and  _219
REMARK  100  A    between atoms: _219  and  _220
REMARK  101  A    between atoms: _223  and  _225
REMARK  102  A    between atoms: _225  and  _226
REMARK  103  A    between atoms: _225  and  _228
REMARK  104  A    between atoms: _228  and  _229
REMARK  105  A    between atoms: _232  and  _234
REMARK  106  A    between atoms: _234  and  _235
REMARK  107  A    between atoms: _234  and  _237
REMARK  108  A    between atoms: _237  and  _238
REMARK  109  A    between atoms: _238  and  _239
REMARK  110  A    between atoms: _244  and  _246
REMARK  111  A    between atoms: _246  and  _247
REMARK  112  A    between atoms: _246  and  _249
REMARK  113  A    between atoms: _249  and  _250
REMARK  114  A    between atoms: _250  and  _251
REMARK  115  A    between atoms: _256  and  _258
REMARK  116  A    between atoms: _258  and  _259
REMARK  117  A    between atoms: _258  and  _261
REMARK  118  A    between atoms: _261  and  _262
REMARK  119  A    between atoms: _265  and  _267
REMARK  120  A    between atoms: _267  and  _268
REMARK  121  A    between atoms: _267  and  _270
REMARK  122  A    between atoms: _270  and  _271
REMARK  123  A    between atoms: _275  and  _276
REMARK  124  A    between atoms: _281  and  _283
REMARK  125  A    between atoms: _283  and  _284
REMARK  126  A    between atoms: _286  and  _288
REMARK  127  A    between atoms: _288  and  _289
REMARK  128  A    between atoms: _288  and  _291
REMARK  129  A    between atoms: _291  and  _292
REMARK  130  A    between atoms: _297  and  _299
REMARK  131  A    between atoms: _299  and  _300
REMARK  132  A    between atoms: _299  and  _302
REMARK  133  A    between atoms: _302  and  _303
REMARK  134  A    between atoms: _303  and  _304
REMARK  135  A    between atoms: _307  and  _309
REMARK  136  A    between atoms: _309  and  _310
REMARK  137  A    between atoms: _309  and  _312
REMARK  138  A    between atoms: _312  and  _313
REMARK  139  A    between atoms: _319  and  _321
REMARK  140  A    between atoms: _321  and  _322
REMARK  141  A    between atoms: _321  and  _324
REMARK  142  A    between atoms: _324  and  _325
REMARK  143  A    between atoms: _325  and  _326
REMARK  144  A    between atoms: _326  and  _327
REMARK  145  A    between atoms: _336  and  _338
REMARK  146  A    between atoms: _338  and  _339
REMARK  147  A    between atoms: _338  and  _341
REMARK  148  A    between atoms: _344  and  _346
REMARK  149  A    between atoms: _346  and  _347
REMARK  150  A    between atoms: _346  and  _349
REMARK  151  A    between atoms: _349  and  _350
REMARK  152  A    between atoms: _353  and  _355
REMARK  153  A    between atoms: _355  and  _356
REMARK  154  A    between atoms: _355  and  _358
REMARK  155  A    between atoms: _358  and  _359
REMARK  156  A    between atoms: _362  and  _364
REMARK  157  A    between atoms: _364  and  _365
REMARK  158  A    between atoms: _364  and  _367
REMARK  159  A    between atoms: _367  and  _368
REMARK  160  A    between atoms: _368  and  _369
REMARK  161  A    between atoms: _371  and  _373
REMARK  162  A    between atoms: _373  and  _374
REMARK  163  A    between atoms: _373  and  _376
REMARK  164  A    between atoms: _376  and  _377
REMARK  165  A    between atoms: _377  and  _378
REMARK  166  A    between atoms: _383  and  _385
REMARK  167  A    between atoms: _385  and  _386
REMARK  168  A    between atoms: _385  and  _388
REMARK  169  A    between atoms: _388  and  _389
REMARK  170  A    between atoms: _392  and  _394
REMARK  171  A    between atoms: _394  and  _395
REMARK  172  A    between atoms: _394  and  _397
REMARK  173  A    between atoms: _397  and  _398
REMARK  174  A    between atoms: _403  and  _405
REMARK  175  A    between atoms: _405  and  _406
REMARK  176  A    between atoms: _405  and  _408
REMARK  177  A    between atoms: _408  and  _409
REMARK  178  A    between atoms: _409  and  _410
REMARK  179  A    between atoms: _410  and  _411
REMARK  180  A    between atoms: _411  and  _412
REMARK  181  A    between atoms: _416  and  _418
REMARK  182  A    between atoms: _418  and  _419
REMARK  183  A    between atoms: _418  and  _421
REMARK  184  A    between atoms: _421  and  _422
REMARK  185  A    between atoms: _425  and  _427
REMARK  186  A    between atoms: _427  and  _428
REMARK  187  A    between atoms: _427  and  _430
REMARK  188  A    between atoms: _430  and  _431
REMARK  189  A    between atoms: _434  and  _436
REMARK  190  A    between atoms: _436  and  _437
REMARK  191  A    between atoms: _436  and  _439
REMARK  192  A    between atoms: _439  and  _440
REMARK  193  A    between atoms: _440  and  _441
REMARK  194  A    between atoms: _441  and  _442
REMARK  195  A    between atoms: _451  and  _453
REMARK  196  A    between atoms: _453  and  _454
REMARK  197  A    between atoms: _453  and  _456
REMARK  198  A    between atoms: _456  and  _457
REMARK  199  A    between atoms: _460  and  _462
REMARK  200  A    between atoms: _462  and  _463
REMARK  201  A    between atoms: _462  and  _465
REMARK  202  A    between atoms: _465  and  _466
REMARK  203  A    between atoms: _469  and  _471
REMARK  204  A    between atoms: _471  and  _472
REMARK  205  A    between atoms: _471  and  _474
REMARK  206  A    between atoms: _474  and  _475
REMARK  207  A    between atoms: _477  and  _479
REMARK  208  A    between atoms: _479  and  _480
REMARK  209  A    between atoms: _483  and  _485
REMARK  210  A    between atoms: _485  and  _486
REMARK  211  A    between atoms: _485  and  _488
REMARK  212  A    between atoms: _488  and  _489
REMARK  213  A    between atoms: _494  and  _496
REMARK  214  A    between atoms: _496  and  _497
REMARK  215  A    between atoms: _496  and  _499
REMARK  216  A    between atoms: _499  and  _500
REMARK  217  A    between atoms: _503  and  _505
REMARK  218  A    between atoms: _505  and  _506
REMARK  219  A    between atoms: _508  and  _510
REMARK  220  A    between atoms: _510  and  _511
REMARK  221  A    between atoms: _510  and  _513
REMARK  222  A    between atoms: _513  and  _514
REMARK  223  A    between atoms: _514  and  _515
REMARK  224  A    between atoms: _518  and  _520
REMARK  225  A    between atoms: _520  and  _521
REMARK  226  A    between atoms: _520  and  _523
REMARK  227  A    between atoms: _523  and  _524
REMARK  228  A    between atoms: _527  and  _529
REMARK  229  A    between atoms: _529  and  _530
REMARK  230  A    between atoms: _529  and  _532
REMARK  231  A    between atoms: _532  and  _533
REMARK  232  A    between atoms: _533  and  _534
REMARK  233  A    between atoms: _534  and  _535
REMARK                            x       y       z     vdW  Elec       q    Type
REMARK                         _______ _______ _______ _____ _____    ______ ____
ROOT
ATOM      1  O   HOH     1     -10.682  30.512   6.135  0.00  0.00    +0.000 OA
ENDROOT
TORSDOF 0
