REMARK  Name = ../refined-set-2016/2o4n/2o4n_pocket.pdb
REMARK  221 active torsions:
REMARK  status: ('A' for Active; 'I' for Inactive)
REMARK    1  A    between atoms: _1  and  _3
REMARK    2  A    between atoms: _3  and  _4
REMARK    3  A    between atoms: _3  and  _6
REMARK    4  A    between atoms: _6  and  _7
REMARK    5  A    between atoms: _7  and  _8
REMARK    6  A    between atoms: _8  and  _9
REMARK    7  A    between atoms: _18  and  _20
REMARK    8  A    between atoms: _20  and  _21
REMARK    9  A    between atoms: _20  and  _23
REMARK   10  A    between atoms: _23  and  _24
REMARK   11  A    between atoms: _27  and  _29
REMARK   12  A    between atoms: _29  and  _30
REMARK   13  A    between atoms: _29  and  _32
REMARK   14  A    between atoms: _32  and  _33
REMARK   15  A    between atoms: _36  and  _38
REMARK   16  A    between atoms: _38  and  _39
REMARK   17  A    between atoms: _38  and  _41
REMARK   18  A    between atoms: _41  and  _42
REMARK   19  A    between atoms: _45  and  _47
REMARK   20  A    between atoms: _47  and  _48
REMARK   21  A    between atoms: _47  and  _50
REMARK   22  A    between atoms: _50  and  _51
REMARK   23  A    between atoms: _54  and  _56
REMARK   24  A    between atoms: _56  and  _57
REMARK   25  A    between atoms: _56  and  _59
REMARK   26  A    between atoms: _59  and  _60
REMARK   27  A    between atoms: _63  and  _65
REMARK   28  A    between atoms: _65  and  _66
REMARK   29  A    between atoms: _68  and  _70
REMARK   30  A    between atoms: _70  and  _71
REMARK   31  A    between atoms: _74  and  _76
REMARK   32  A    between atoms: _76  and  _77
REMARK   33  A    between atoms: _76  and  _79
REMARK   34  A    between atoms: _79  and  _80
REMARK   35  A    between atoms: _83  and  _85
REMARK   36  A    between atoms: _85  and  _86
REMARK   37  A    between atoms: _85  and  _88
REMARK   38  A    between atoms: _88  and  _89
REMARK   39  A    between atoms: _92  and  _94
REMARK   40  A    between atoms: _94  and  _95
REMARK   41  A    between atoms: _94  and  _97
REMARK   42  A    between atoms: _97  and  _98
REMARK   43  A    between atoms: _101  and  _103
REMARK   44  A    between atoms: _103  and  _104
REMARK   45  A    between atoms: _103  and  _106
REMARK   46  A    between atoms: _106  and  _107
REMARK   47  A    between atoms: _110  and  _112
REMARK   48  A    between atoms: _112  and  _113
REMARK   49  A    between atoms: _112  and  _115
REMARK   50  A    between atoms: _115  and  _116
REMARK   51  A    between atoms: _119  and  _121
REMARK   52  A    between atoms: _121  and  _122
REMARK   53  A    between atoms: _121  and  _124
REMARK   54  A    between atoms: _124  and  _125
REMARK   55  A    between atoms: _125  and  _126
REMARK   56  A    between atoms: _128  and  _130
REMARK   57  A    between atoms: _130  and  _131
REMARK   58  A    between atoms: _130  and  _133
REMARK   59  A    between atoms: _133  and  _134
REMARK   60  A    between atoms: _137  and  _139
REMARK   61  A    between atoms: _139  and  _140
REMARK   62  A    between atoms: _142  and  _144
REMARK   63  A    between atoms: _144  and  _145
REMARK   64  A    between atoms: _147  and  _149
REMARK   65  A    between atoms: _149  and  _150
REMARK   66  A    between atoms: _149  and  _152
REMARK   67  A    between atoms: _152  and  _153
REMARK   68  A    between atoms: _156  and  _158
REMARK   69  A    between atoms: _158  and  _159
REMARK   70  A    between atoms: _161  and  _163
REMARK   71  A    between atoms: _163  and  _164
REMARK   72  A    between atoms: _166  and  _168
REMARK   73  A    between atoms: _168  and  _169
REMARK   74  A    between atoms: _168  and  _171
REMARK   75  A    between atoms: _171  and  _172
REMARK   76  A    between atoms: _178  and  _180
REMARK   77  A    between atoms: _180  and  _181
REMARK   78  A    between atoms: _180  and  _183
REMARK   79  A    between atoms: _183  and  _184
REMARK   80  A    between atoms: _187  and  _189
REMARK   81  A    between atoms: _189  and  _190
REMARK   82  A    between atoms: _189  and  _192
REMARK   83  A    between atoms: _195  and  _197
REMARK   84  A    between atoms: _197  and  _198
REMARK   85  A    between atoms: _197  and  _200
REMARK   86  A    between atoms: _200  and  _201
REMARK   87  A    between atoms: _204  and  _206
REMARK   88  A    between atoms: _206  and  _207
REMARK   89  A    between atoms: _206  and  _209
REMARK   90  A    between atoms: _209  and  _210
REMARK   91  A    between atoms: _214  and  _215
REMARK   92  A    between atoms: _220  and  _222
REMARK   93  A    between atoms: _222  and  _223
REMARK   94  A    between atoms: _222  and  _225
REMARK   95  A    between atoms: _225  and  _226
REMARK   96  A    between atoms: _229  and  _231
REMARK   97  A    between atoms: _231  and  _232
REMARK   98  A    between atoms: _231  and  _234
REMARK   99  A    between atoms: _234  and  _235
REMARK  100  A    between atoms: _240  and  _242
REMARK  101  A    between atoms: _242  and  _243
REMARK  102  A    between atoms: _242  and  _245
REMARK  103  A    between atoms: _248  and  _250
REMARK  104  A    between atoms: _250  and  _251
REMARK  105  A    between atoms: _250  and  _253
REMARK  106  A    between atoms: _253  and  _254
REMARK  107  A    between atoms: _257  and  _259
REMARK  108  A    between atoms: _259  and  _260
REMARK  109  A    between atoms: _262  and  _264
REMARK  110  A    between atoms: _264  and  _265
REMARK  111  A    between atoms: _264  and  _267
REMARK  112  A    between atoms: _267  and  _268
REMARK  113  A    between atoms: _268  and  _269
REMARK  114  A    between atoms: _269  and  _270
REMARK  115  A    between atoms: _279  and  _281
REMARK  116  A    between atoms: _281  and  _282
REMARK  117  A    between atoms: _281  and  _284
REMARK  118  A    between atoms: _284  and  _285
REMARK  119  A    between atoms: _290  and  _292
REMARK  120  A    between atoms: _292  and  _293
REMARK  121  A    between atoms: _292  and  _295
REMARK  122  A    between atoms: _295  and  _296
REMARK  123  A    between atoms: _296  and  _297
REMARK  124  A    between atoms: _297  and  _298
REMARK  125  A    between atoms: _308  and  _309
REMARK  126  A    between atoms: _314  and  _316
REMARK  127  A    between atoms: _316  and  _317
REMARK  128  A    between atoms: _316  and  _319
REMARK  129  A    between atoms: _319  and  _320
REMARK  130  A    between atoms: _323  and  _325
REMARK  131  A    between atoms: _325  and  _326
REMARK  132  A    between atoms: _325  and  _328
REMARK  133  A    between atoms: _328  and  _329
REMARK  134  A    between atoms: _332  and  _334
REMARK  135  A    between atoms: _334  and  _335
REMARK  136  A    between atoms: _334  and  _337
REMARK  137  A    between atoms: _337  and  _338
REMARK  138  A    between atoms: _341  and  _343
REMARK  139  A    between atoms: _343  and  _344
REMARK  140  A    between atoms: _343  and  _346
REMARK  141  A    between atoms: _346  and  _347
REMARK  142  A    between atoms: _350  and  _352
REMARK  143  A    between atoms: _352  and  _353
REMARK  144  A    between atoms: _352  and  _355
REMARK  145  A    between atoms: _355  and  _356
REMARK  146  A    between atoms: _359  and  _361
REMARK  147  A    between atoms: _361  and  _362
REMARK  148  A    between atoms: _364  and  _366
REMARK  149  A    between atoms: _366  and  _367
REMARK  150  A    between atoms: _370  and  _372
REMARK  151  A    between atoms: _372  and  _373
REMARK  152  A    between atoms: _372  and  _375
REMARK  153  A    between atoms: _375  and  _376
REMARK  154  A    between atoms: _379  and  _381
REMARK  155  A    between atoms: _381  and  _382
REMARK  156  A    between atoms: _381  and  _384
REMARK  157  A    between atoms: _384  and  _385
REMARK  158  A    between atoms: _388  and  _390
REMARK  159  A    between atoms: _390  and  _391
REMARK  160  A    between atoms: _390  and  _393
REMARK  161  A    between atoms: _393  and  _394
REMARK  162  A    between atoms: _397  and  _399
REMARK  163  A    between atoms: _399  and  _400
REMARK  164  A    between atoms: _399  and  _402
REMARK  165  A    between atoms: _402  and  _403
REMARK  166  A    between atoms: _406  and  _408
REMARK  167  A    between atoms: _408  and  _409
REMARK  168  A    between atoms: _408  and  _411
REMARK  169  A    between atoms: _411  and  _412
REMARK  170  A    between atoms: _415  and  _417
REMARK  171  A    between atoms: _417  and  _418
REMARK  172  A    between atoms: _420  and  _422
REMARK  173  A    between atoms: _422  and  _423
REMARK  174  A    between atoms: _425  and  _427
REMARK  175  A    between atoms: _427  and  _428
REMARK  176  A    between atoms: _427  and  _430
REMARK  177  A    between atoms: _430  and  _431
REMARK  178  A    between atoms: _434  and  _436
REMARK  179  A    between atoms: _436  and  _437
REMARK  180  A    between atoms: _439  and  _441
REMARK  181  A    between atoms: _441  and  _442
REMARK  182  A    between atoms: _444  and  _446
REMARK  183  A    between atoms: _446  and  _447
REMARK  184  A    between atoms: _446  and  _449
REMARK  185  A    between atoms: _449  and  _450
REMARK  186  A    between atoms: _456  and  _458
REMARK  187  A    between atoms: _458  and  _459
REMARK  188  A    between atoms: _458  and  _461
REMARK  189  A    between atoms: _461  and  _462
REMARK  190  A    between atoms: _465  and  _467
REMARK  191  A    between atoms: _467  and  _468
REMARK  192  A    between atoms: _467  and  _470
REMARK  193  A    between atoms: _470  and  _471
REMARK  194  A    between atoms: _474  and  _476
REMARK  195  A    between atoms: _476  and  _477
REMARK  196  A    between atoms: _476  and  _479
REMARK  197  A    between atoms: _479  and  _480
REMARK  198  A    between atoms: _484  and  _485
REMARK  199  A    between atoms: _490  and  _492
REMARK  200  A    between atoms: _492  and  _493
REMARK  201  A    between atoms: _492  and  _495
REMARK  202  A    between atoms: _495  and  _496
REMARK  203  A    between atoms: _499  and  _501
REMARK  204  A    between atoms: _501  and  _502
REMARK  205  A    between atoms: _501  and  _504
REMARK  206  A    between atoms: _504  and  _505
REMARK  207  A    between atoms: _510  and  _512
REMARK  208  A    between atoms: _512  and  _513
REMARK  209  A    between atoms: _512  and  _515
REMARK  210  A    between atoms: _518  and  _520
REMARK  211  A    between atoms: _520  and  _521
REMARK  212  A    between atoms: _520  and  _523
REMARK  213  A    between atoms: _523  and  _524
REMARK  214  A    between atoms: _527  and  _529
REMARK  215  A    between atoms: _529  and  _530
REMARK  216  A    between atoms: _532  and  _534
REMARK  217  A    between atoms: _534  and  _535
REMARK  218  A    between atoms: _534  and  _537
REMARK  219  A    between atoms: _537  and  _538
REMARK  220  A    between atoms: _538  and  _539
REMARK  221  A    between atoms: _539  and  _540
REMARK                            x       y       z     vdW  Elec       q    Type
REMARK                         _______ _______ _______ _____ _____    ______ ____
ROOT
ATOM      1  NE  ARG A   1      22.908  23.205  15.500  0.00  0.00    -0.265 N 
ATOM      2  HE  ARG A   1      22.832  23.302  16.533  0.00  0.00    +0.259 HD
ATOM      3  CZ  ARG A   1      22.572  24.236  14.763  0.00  0.00    +0.342 C 
ATOM      4  NH2 ARG A   1      22.157  25.343  15.367  0.00  0.00    -0.292 N 
ATOM      5 HH21 ARG A   1      22.103  25.380  16.405  0.00  0.00    +0.255 HD
ATOM      6 HH22 ARG A   1      21.885  26.173  14.802  0.00  0.00    +0.255 HD
ATOM      7  NH1 ARG A   1      22.631  24.156  13.416  0.00  0.00    -0.292 N 
ATOM      8 HH11 ARG A   1      22.944  23.275  12.961  0.00  0.00    +0.255 HD
ATOM      9 HH12 ARG A   1      22.364  24.976  12.834  0.00  0.00    +0.255 HD
ENDROOT
BRANCH   1  10
ATOM     10  CD  ARG A   1      23.377  21.941  14.974  0.00  0.00    +0.174 C 
BRANCH  10  11
ATOM     11  CG  ARG A   1      24.145  21.210  16.070  0.00  0.00    +0.045 C 
BRANCH  11  12
ATOM     12  CB  ARG A   1      24.648  19.853  15.661  0.00  0.00    +0.029 C 
BRANCH  12  13
ATOM     13  CA  ARG A   1      25.334  19.069  16.797  0.00  0.00    +0.133 C 
BRANCH  13  14
ATOM     14  N   ARG A   1      26.560  19.756  17.264  0.00  0.00    -0.239 NA
ATOM     15  H   ARG A   1      26.891  20.615  16.780  0.00  0.00    +0.142 HD
ENDBRANCH  13  14
BRANCH  13  16
ATOM     16  C   ARG A   1      25.702  17.670  16.307  0.00  0.00    +0.224 C 
ATOM     17  O   ARG A   1      26.659  17.544  15.543  0.00  0.00    -0.287 OA
ENDBRANCH  13  16
ENDBRANCH  12  13
ENDBRANCH  11  12
ENDBRANCH  10  11
ENDBRANCH   1  10
TORSDOF 6
REMARK  Name = ../refined-set-2016/2o4n/2o4n_pocket.pdb
REMARK  221 active torsions:
REMARK  status: ('A' for Active; 'I' for Inactive)
REMARK    1  A    between atoms: _1  and  _3
REMARK    2  A    between atoms: _3  and  _4
REMARK    3  A    between atoms: _3  and  _6
REMARK    4  A    between atoms: _6  and  _7
REMARK    5  A    between atoms: _7  and  _8
REMARK    6  A    between atoms: _8  and  _9
REMARK    7  A    between atoms: _18  and  _20
REMARK    8  A    between atoms: _20  and  _21
REMARK    9  A    between atoms: _20  and  _23
REMARK   10  A    between atoms: _23  and  _24
REMARK   11  A    between atoms: _27  and  _29
REMARK   12  A    between atoms: _29  and  _30
REMARK   13  A    between atoms: _29  and  _32
REMARK   14  A    between atoms: _32  and  _33
REMARK   15  A    between atoms: _36  and  _38
REMARK   16  A    between atoms: _38  and  _39
REMARK   17  A    between atoms: _38  and  _41
REMARK   18  A    between atoms: _41  and  _42
REMARK   19  A    between atoms: _45  and  _47
REMARK   20  A    between atoms: _47  and  _48
REMARK   21  A    between atoms: _47  and  _50
REMARK   22  A    between atoms: _50  and  _51
REMARK   23  A    between atoms: _54  and  _56
REMARK   24  A    between atoms: _56  and  _57
REMARK   25  A    between atoms: _56  and  _59
REMARK   26  A    between atoms: _59  and  _60
REMARK   27  A    between atoms: _63  and  _65
REMARK   28  A    between atoms: _65  and  _66
REMARK   29  A    between atoms: _68  and  _70
REMARK   30  A    between atoms: _70  and  _71
REMARK   31  A    between atoms: _74  and  _76
REMARK   32  A    between atoms: _76  and  _77
REMARK   33  A    between atoms: _76  and  _79
REMARK   34  A    between atoms: _79  and  _80
REMARK   35  A    between atoms: _83  and  _85
REMARK   36  A    between atoms: _85  and  _86
REMARK   37  A    between atoms: _85  and  _88
REMARK   38  A    between atoms: _88  and  _89
REMARK   39  A    between atoms: _92  and  _94
REMARK   40  A    between atoms: _94  and  _95
REMARK   41  A    between atoms: _94  and  _97
REMARK   42  A    between atoms: _97  and  _98
REMARK   43  A    between atoms: _101  and  _103
REMARK   44  A    between atoms: _103  and  _104
REMARK   45  A    between atoms: _103  and  _106
REMARK   46  A    between atoms: _106  and  _107
REMARK   47  A    between atoms: _110  and  _112
REMARK   48  A    between atoms: _112  and  _113
REMARK   49  A    between atoms: _112  and  _115
REMARK   50  A    between atoms: _115  and  _116
REMARK   51  A    between atoms: _119  and  _121
REMARK   52  A    between atoms: _121  and  _122
REMARK   53  A    between atoms: _121  and  _124
REMARK   54  A    between atoms: _124  and  _125
REMARK   55  A    between atoms: _125  and  _126
REMARK   56  A    between atoms: _128  and  _130
REMARK   57  A    between atoms: _130  and  _131
REMARK   58  A    between atoms: _130  and  _133
REMARK   59  A    between atoms: _133  and  _134
REMARK   60  A    between atoms: _137  and  _139
REMARK   61  A    between atoms: _139  and  _140
REMARK   62  A    between atoms: _142  and  _144
REMARK   63  A    between atoms: _144  and  _145
REMARK   64  A    between atoms: _147  and  _149
REMARK   65  A    between atoms: _149  and  _150
REMARK   66  A    between atoms: _149  and  _152
REMARK   67  A    between atoms: _152  and  _153
REMARK   68  A    between atoms: _156  and  _158
REMARK   69  A    between atoms: _158  and  _159
REMARK   70  A    between atoms: _161  and  _163
REMARK   71  A    between atoms: _163  and  _164
REMARK   72  A    between atoms: _166  and  _168
REMARK   73  A    between atoms: _168  and  _169
REMARK   74  A    between atoms: _168  and  _171
REMARK   75  A    between atoms: _171  and  _172
REMARK   76  A    between atoms: _178  and  _180
REMARK   77  A    between atoms: _180  and  _181
REMARK   78  A    between atoms: _180  and  _183
REMARK   79  A    between atoms: _183  and  _184
REMARK   80  A    between atoms: _187  and  _189
REMARK   81  A    between atoms: _189  and  _190
REMARK   82  A    between atoms: _189  and  _192
REMARK   83  A    between atoms: _195  and  _197
REMARK   84  A    between atoms: _197  and  _198
REMARK   85  A    between atoms: _197  and  _200
REMARK   86  A    between atoms: _200  and  _201
REMARK   87  A    between atoms: _204  and  _206
REMARK   88  A    between atoms: _206  and  _207
REMARK   89  A    between atoms: _206  and  _209
REMARK   90  A    between atoms: _209  and  _210
REMARK   91  A    between atoms: _214  and  _215
REMARK   92  A    between atoms: _220  and  _222
REMARK   93  A    between atoms: _222  and  _223
REMARK   94  A    between atoms: _222  and  _225
REMARK   95  A    between atoms: _225  and  _226
REMARK   96  A    between atoms: _229  and  _231
REMARK   97  A    between atoms: _231  and  _232
REMARK   98  A    between atoms: _231  and  _234
REMARK   99  A    between atoms: _234  and  _235
REMARK  100  A    between atoms: _240  and  _242
REMARK  101  A    between atoms: _242  and  _243
REMARK  102  A    between atoms: _242  and  _245
REMARK  103  A    between atoms: _248  and  _250
REMARK  104  A    between atoms: _250  and  _251
REMARK  105  A    between atoms: _250  and  _253
REMARK  106  A    between atoms: _253  and  _254
REMARK  107  A    between atoms: _257  and  _259
REMARK  108  A    between atoms: _259  and  _260
REMARK  109  A    between atoms: _262  and  _264
REMARK  110  A    between atoms: _264  and  _265
REMARK  111  A    between atoms: _264  and  _267
REMARK  112  A    between atoms: _267  and  _268
REMARK  113  A    between atoms: _268  and  _269
REMARK  114  A    between atoms: _269  and  _270
REMARK  115  A    between atoms: _279  and  _281
REMARK  116  A    between atoms: _281  and  _282
REMARK  117  A    between atoms: _281  and  _284
REMARK  118  A    between atoms: _284  and  _285
REMARK  119  A    between atoms: _290  and  _292
REMARK  120  A    between atoms: _292  and  _293
REMARK  121  A    between atoms: _292  and  _295
REMARK  122  A    between atoms: _295  and  _296
REMARK  123  A    between atoms: _296  and  _297
REMARK  124  A    between atoms: _297  and  _298
REMARK  125  A    between atoms: _308  and  _309
REMARK  126  A    between atoms: _314  and  _316
REMARK  127  A    between atoms: _316  and  _317
REMARK  128  A    between atoms: _316  and  _319
REMARK  129  A    between atoms: _319  and  _320
REMARK  130  A    between atoms: _323  and  _325
REMARK  131  A    between atoms: _325  and  _326
REMARK  132  A    between atoms: _325  and  _328
REMARK  133  A    between atoms: _328  and  _329
REMARK  134  A    between atoms: _332  and  _334
REMARK  135  A    between atoms: _334  and  _335
REMARK  136  A    between atoms: _334  and  _337
REMARK  137  A    between atoms: _337  and  _338
REMARK  138  A    between atoms: _341  and  _343
REMARK  139  A    between atoms: _343  and  _344
REMARK  140  A    between atoms: _343  and  _346
REMARK  141  A    between atoms: _346  and  _347
REMARK  142  A    between atoms: _350  and  _352
REMARK  143  A    between atoms: _352  and  _353
REMARK  144  A    between atoms: _352  and  _355
REMARK  145  A    between atoms: _355  and  _356
REMARK  146  A    between atoms: _359  and  _361
REMARK  147  A    between atoms: _361  and  _362
REMARK  148  A    between atoms: _364  and  _366
REMARK  149  A    between atoms: _366  and  _367
REMARK  150  A    between atoms: _370  and  _372
REMARK  151  A    between atoms: _372  and  _373
REMARK  152  A    between atoms: _372  and  _375
REMARK  153  A    between atoms: _375  and  _376
REMARK  154  A    between atoms: _379  and  _381
REMARK  155  A    between atoms: _381  and  _382
REMARK  156  A    between atoms: _381  and  _384
REMARK  157  A    between atoms: _384  and  _385
REMARK  158  A    between atoms: _388  and  _390
REMARK  159  A    between atoms: _390  and  _391
REMARK  160  A    between atoms: _390  and  _393
REMARK  161  A    between atoms: _393  and  _394
REMARK  162  A    between atoms: _397  and  _399
REMARK  163  A    between atoms: _399  and  _400
REMARK  164  A    between atoms: _399  and  _402
REMARK  165  A    between atoms: _402  and  _403
REMARK  166  A    between atoms: _406  and  _408
REMARK  167  A    between atoms: _408  and  _409
REMARK  168  A    between atoms: _408  and  _411
REMARK  169  A    between atoms: _411  and  _412
REMARK  170  A    between atoms: _415  and  _417
REMARK  171  A    between atoms: _417  and  _418
REMARK  172  A    between atoms: _420  and  _422
REMARK  173  A    between atoms: _422  and  _423
REMARK  174  A    between atoms: _425  and  _427
REMARK  175  A    between atoms: _427  and  _428
REMARK  176  A    between atoms: _427  and  _430
REMARK  177  A    between atoms: _430  and  _431
REMARK  178  A    between atoms: _434  and  _436
REMARK  179  A    between atoms: _436  and  _437
REMARK  180  A    between atoms: _439  and  _441
REMARK  181  A    between atoms: _441  and  _442
REMARK  182  A    between atoms: _444  and  _446
REMARK  183  A    between atoms: _446  and  _447
REMARK  184  A    between atoms: _446  and  _449
REMARK  185  A    between atoms: _449  and  _450
REMARK  186  A    between atoms: _456  and  _458
REMARK  187  A    between atoms: _458  and  _459
REMARK  188  A    between atoms: _458  and  _461
REMARK  189  A    between atoms: _461  and  _462
REMARK  190  A    between atoms: _465  and  _467
REMARK  191  A    between atoms: _467  and  _468
REMARK  192  A    between atoms: _467  and  _470
REMARK  193  A    between atoms: _470  and  _471
REMARK  194  A    between atoms: _474  and  _476
REMARK  195  A    between atoms: _476  and  _477
REMARK  196  A    between atoms: _476  and  _479
REMARK  197  A    between atoms: _479  and  _480
REMARK  198  A    between atoms: _484  and  _485
REMARK  199  A    between atoms: _490  and  _492
REMARK  200  A    between atoms: _492  and  _493
REMARK  201  A    between atoms: _492  and  _495
REMARK  202  A    between atoms: _495  and  _496
REMARK  203  A    between atoms: _499  and  _501
REMARK  204  A    between atoms: _501  and  _502
REMARK  205  A    between atoms: _501  and  _504
REMARK  206  A    between atoms: _504  and  _505
REMARK  207  A    between atoms: _510  and  _512
REMARK  208  A    between atoms: _512  and  _513
REMARK  209  A    between atoms: _512  and  _515
REMARK  210  A    between atoms: _518  and  _520
REMARK  211  A    between atoms: _520  and  _521
REMARK  212  A    between atoms: _520  and  _523
REMARK  213  A    between atoms: _523  and  _524
REMARK  214  A    between atoms: _527  and  _529
REMARK  215  A    between atoms: _529  and  _530
REMARK  216  A    between atoms: _532  and  _534
REMARK  217  A    between atoms: _534  and  _535
REMARK  218  A    between atoms: _534  and  _537
REMARK  219  A    between atoms: _537  and  _538
REMARK  220  A    between atoms: _538  and  _539
REMARK  221  A    between atoms: _539  and  _540
REMARK                            x       y       z     vdW  Elec       q    Type
REMARK                         _______ _______ _______ _____ _____    ______ ____
ROOT
ATOM      1  CA  LEU A   1      25.166  15.311  12.464  0.00  0.00    +0.133 C 
ENDROOT
BRANCH   1   2
ATOM      2  N   LEU A   1      25.507  15.469  13.874  0.00  0.00    -0.239 NA
ATOM      3  H   LEU A   1      26.386  15.966  14.122  0.00  0.00    +0.142 HD
ENDBRANCH   1   2
BRANCH   1   4
ATOM      4  C   LEU A   1      25.831  14.059  11.922  0.00  0.00    +0.224 C 
ATOM      5  O   LEU A   1      27.000  13.808  12.231  0.00  0.00    -0.287 OA
ENDBRANCH   1   4
BRANCH   1   6
ATOM      6  CB  LEU A   1      25.593  16.563  11.661  0.00  0.00    +0.025 C 
BRANCH   6   7
ATOM      7  CG  LEU A   1      24.948  17.887  12.164  0.00  0.00    +0.002 C 
ATOM      8  CD2 LEU A   1      23.477  17.937  11.815  0.00  0.00    +0.000 C 
ATOM      9  CD1 LEU A   1      25.677  19.164  11.662  0.00  0.00    +0.000 C 
ENDBRANCH   6   7
ENDBRANCH   1   6
TORSDOF 4
REMARK  Name = ../refined-set-2016/2o4n/2o4n_pocket.pdb
REMARK  221 active torsions:
REMARK  status: ('A' for Active; 'I' for Inactive)
REMARK    1  A    between atoms: _1  and  _3
REMARK    2  A    between atoms: _3  and  _4
REMARK    3  A    between atoms: _3  and  _6
REMARK    4  A    between atoms: _6  and  _7
REMARK    5  A    between atoms: _7  and  _8
REMARK    6  A    between atoms: _8  and  _9
REMARK    7  A    between atoms: _18  and  _20
REMARK    8  A    between atoms: _20  and  _21
REMARK    9  A    between atoms: _20  and  _23
REMARK   10  A    between atoms: _23  and  _24
REMARK   11  A    between atoms: _27  and  _29
REMARK   12  A    between atoms: _29  and  _30
REMARK   13  A    between atoms: _29  and  _32
REMARK   14  A    between atoms: _32  and  _33
REMARK   15  A    between atoms: _36  and  _38
REMARK   16  A    between atoms: _38  and  _39
REMARK   17  A    between atoms: _38  and  _41
REMARK   18  A    between atoms: _41  and  _42
REMARK   19  A    between atoms: _45  and  _47
REMARK   20  A    between atoms: _47  and  _48
REMARK   21  A    between atoms: _47  and  _50
REMARK   22  A    between atoms: _50  and  _51
REMARK   23  A    between atoms: _54  and  _56
REMARK   24  A    between atoms: _56  and  _57
REMARK   25  A    between atoms: _56  and  _59
REMARK   26  A    between atoms: _59  and  _60
REMARK   27  A    between atoms: _63  and  _65
REMARK   28  A    between atoms: _65  and  _66
REMARK   29  A    between atoms: _68  and  _70
REMARK   30  A    between atoms: _70  and  _71
REMARK   31  A    between atoms: _74  and  _76
REMARK   32  A    between atoms: _76  and  _77
REMARK   33  A    between atoms: _76  and  _79
REMARK   34  A    between atoms: _79  and  _80
REMARK   35  A    between atoms: _83  and  _85
REMARK   36  A    between atoms: _85  and  _86
REMARK   37  A    between atoms: _85  and  _88
REMARK   38  A    between atoms: _88  and  _89
REMARK   39  A    between atoms: _92  and  _94
REMARK   40  A    between atoms: _94  and  _95
REMARK   41  A    between atoms: _94  and  _97
REMARK   42  A    between atoms: _97  and  _98
REMARK   43  A    between atoms: _101  and  _103
REMARK   44  A    between atoms: _103  and  _104
REMARK   45  A    between atoms: _103  and  _106
REMARK   46  A    between atoms: _106  and  _107
REMARK   47  A    between atoms: _110  and  _112
REMARK   48  A    between atoms: _112  and  _113
REMARK   49  A    between atoms: _112  and  _115
REMARK   50  A    between atoms: _115  and  _116
REMARK   51  A    between atoms: _119  and  _121
REMARK   52  A    between atoms: _121  and  _122
REMARK   53  A    between atoms: _121  and  _124
REMARK   54  A    between atoms: _124  and  _125
REMARK   55  A    between atoms: _125  and  _126
REMARK   56  A    between atoms: _128  and  _130
REMARK   57  A    between atoms: _130  and  _131
REMARK   58  A    between atoms: _130  and  _133
REMARK   59  A    between atoms: _133  and  _134
REMARK   60  A    between atoms: _137  and  _139
REMARK   61  A    between atoms: _139  and  _140
REMARK   62  A    between atoms: _142  and  _144
REMARK   63  A    between atoms: _144  and  _145
REMARK   64  A    between atoms: _147  and  _149
REMARK   65  A    between atoms: _149  and  _150
REMARK   66  A    between atoms: _149  and  _152
REMARK   67  A    between atoms: _152  and  _153
REMARK   68  A    between atoms: _156  and  _158
REMARK   69  A    between atoms: _158  and  _159
REMARK   70  A    between atoms: _161  and  _163
REMARK   71  A    between atoms: _163  and  _164
REMARK   72  A    between atoms: _166  and  _168
REMARK   73  A    between atoms: _168  and  _169
REMARK   74  A    between atoms: _168  and  _171
REMARK   75  A    between atoms: _171  and  _172
REMARK   76  A    between atoms: _178  and  _180
REMARK   77  A    between atoms: _180  and  _181
REMARK   78  A    between atoms: _180  and  _183
REMARK   79  A    between atoms: _183  and  _184
REMARK   80  A    between atoms: _187  and  _189
REMARK   81  A    between atoms: _189  and  _190
REMARK   82  A    between atoms: _189  and  _192
REMARK   83  A    between atoms: _195  and  _197
REMARK   84  A    between atoms: _197  and  _198
REMARK   85  A    between atoms: _197  and  _200
REMARK   86  A    between atoms: _200  and  _201
REMARK   87  A    between atoms: _204  and  _206
REMARK   88  A    between atoms: _206  and  _207
REMARK   89  A    between atoms: _206  and  _209
REMARK   90  A    between atoms: _209  and  _210
REMARK   91  A    between atoms: _214  and  _215
REMARK   92  A    between atoms: _220  and  _222
REMARK   93  A    between atoms: _222  and  _223
REMARK   94  A    between atoms: _222  and  _225
REMARK   95  A    between atoms: _225  and  _226
REMARK   96  A    between atoms: _229  and  _231
REMARK   97  A    between atoms: _231  and  _232
REMARK   98  A    between atoms: _231  and  _234
REMARK   99  A    between atoms: _234  and  _235
REMARK  100  A    between atoms: _240  and  _242
REMARK  101  A    between atoms: _242  and  _243
REMARK  102  A    between atoms: _242  and  _245
REMARK  103  A    between atoms: _248  and  _250
REMARK  104  A    between atoms: _250  and  _251
REMARK  105  A    between atoms: _250  and  _253
REMARK  106  A    between atoms: _253  and  _254
REMARK  107  A    between atoms: _257  and  _259
REMARK  108  A    between atoms: _259  and  _260
REMARK  109  A    between atoms: _262  and  _264
REMARK  110  A    between atoms: _264  and  _265
REMARK  111  A    between atoms: _264  and  _267
REMARK  112  A    between atoms: _267  and  _268
REMARK  113  A    between atoms: _268  and  _269
REMARK  114  A    between atoms: _269  and  _270
REMARK  115  A    between atoms: _279  and  _281
REMARK  116  A    between atoms: _281  and  _282
REMARK  117  A    between atoms: _281  and  _284
REMARK  118  A    between atoms: _284  and  _285
REMARK  119  A    between atoms: _290  and  _292
REMARK  120  A    between atoms: _292  and  _293
REMARK  121  A    between atoms: _292  and  _295
REMARK  122  A    between atoms: _295  and  _296
REMARK  123  A    between atoms: _296  and  _297
REMARK  124  A    between atoms: _297  and  _298
REMARK  125  A    between atoms: _308  and  _309
REMARK  126  A    between atoms: _314  and  _316
REMARK  127  A    between atoms: _316  and  _317
REMARK  128  A    between atoms: _316  and  _319
REMARK  129  A    between atoms: _319  and  _320
REMARK  130  A    between atoms: _323  and  _325
REMARK  131  A    between atoms: _325  and  _326
REMARK  132  A    between atoms: _325  and  _328
REMARK  133  A    between atoms: _328  and  _329
REMARK  134  A    between atoms: _332  and  _334
REMARK  135  A    between atoms: _334  and  _335
REMARK  136  A    between atoms: _334  and  _337
REMARK  137  A    between atoms: _337  and  _338
REMARK  138  A    between atoms: _341  and  _343
REMARK  139  A    between atoms: _343  and  _344
REMARK  140  A    between atoms: _343  and  _346
REMARK  141  A    between atoms: _346  and  _347
REMARK  142  A    between atoms: _350  and  _352
REMARK  143  A    between atoms: _352  and  _353
REMARK  144  A    between atoms: _352  and  _355
REMARK  145  A    between atoms: _355  and  _356
REMARK  146  A    between atoms: _359  and  _361
REMARK  147  A    between atoms: _361  and  _362
REMARK  148  A    between atoms: _364  and  _366
REMARK  149  A    between atoms: _366  and  _367
REMARK  150  A    between atoms: _370  and  _372
REMARK  151  A    between atoms: _372  and  _373
REMARK  152  A    between atoms: _372  and  _375
REMARK  153  A    between atoms: _375  and  _376
REMARK  154  A    between atoms: _379  and  _381
REMARK  155  A    between atoms: _381  and  _382
REMARK  156  A    between atoms: _381  and  _384
REMARK  157  A    between atoms: _384  and  _385
REMARK  158  A    between atoms: _388  and  _390
REMARK  159  A    between atoms: _390  and  _391
REMARK  160  A    between atoms: _390  and  _393
REMARK  161  A    between atoms: _393  and  _394
REMARK  162  A    between atoms: _397  and  _399
REMARK  163  A    between atoms: _399  and  _400
REMARK  164  A    between atoms: _399  and  _402
REMARK  165  A    between atoms: _402  and  _403
REMARK  166  A    between atoms: _406  and  _408
REMARK  167  A    between atoms: _408  and  _409
REMARK  168  A    between atoms: _408  and  _411
REMARK  169  A    between atoms: _411  and  _412
REMARK  170  A    between atoms: _415  and  _417
REMARK  171  A    between atoms: _417  and  _418
REMARK  172  A    between atoms: _420  and  _422
REMARK  173  A    between atoms: _422  and  _423
REMARK  174  A    between atoms: _425  and  _427
REMARK  175  A    between atoms: _427  and  _428
REMARK  176  A    between atoms: _427  and  _430
REMARK  177  A    between atoms: _430  and  _431
REMARK  178  A    between atoms: _434  and  _436
REMARK  179  A    between atoms: _436  and  _437
REMARK  180  A    between atoms: _439  and  _441
REMARK  181  A    between atoms: _441  and  _442
REMARK  182  A    between atoms: _444  and  _446
REMARK  183  A    between atoms: _446  and  _447
REMARK  184  A    between atoms: _446  and  _449
REMARK  185  A    between atoms: _449  and  _450
REMARK  186  A    between atoms: _456  and  _458
REMARK  187  A    between atoms: _458  and  _459
REMARK  188  A    between atoms: _458  and  _461
REMARK  189  A    between atoms: _461  and  _462
REMARK  190  A    between atoms: _465  and  _467
REMARK  191  A    between atoms: _467  and  _468
REMARK  192  A    between atoms: _467  and  _470
REMARK  193  A    between atoms: _470  and  _471
REMARK  194  A    between atoms: _474  and  _476
REMARK  195  A    between atoms: _476  and  _477
REMARK  196  A    between atoms: _476  and  _479
REMARK  197  A    between atoms: _479  and  _480
REMARK  198  A    between atoms: _484  and  _485
REMARK  199  A    between atoms: _490  and  _492
REMARK  200  A    between atoms: _492  and  _493
REMARK  201  A    between atoms: _492  and  _495
REMARK  202  A    between atoms: _495  and  _496
REMARK  203  A    between atoms: _499  and  _501
REMARK  204  A    between atoms: _501  and  _502
REMARK  205  A    between atoms: _501  and  _504
REMARK  206  A    between atoms: _504  and  _505
REMARK  207  A    between atoms: _510  and  _512
REMARK  208  A    between atoms: _512  and  _513
REMARK  209  A    between atoms: _512  and  _515
REMARK  210  A    between atoms: _518  and  _520
REMARK  211  A    between atoms: _520  and  _521
REMARK  212  A    between atoms: _520  and  _523
REMARK  213  A    between atoms: _523  and  _524
REMARK  214  A    between atoms: _527  and  _529
REMARK  215  A    between atoms: _529  and  _530
REMARK  216  A    between atoms: _532  and  _534
REMARK  217  A    between atoms: _534  and  _535
REMARK  218  A    between atoms: _534  and  _537
REMARK  219  A    between atoms: _537  and  _538
REMARK  220  A    between atoms: _538  and  _539
REMARK  221  A    between atoms: _539  and  _540
REMARK                            x       y       z     vdW  Elec       q    Type
REMARK                         _______ _______ _______ _____ _____    ______ ____
ROOT
ATOM      1  C   GLY A   5      12.357  14.746  20.239  0.00  0.00    +0.243 C 
ATOM      2  O   GLY A   5      11.189  15.013  20.534  0.00  0.00    -0.273 OA
ATOM      3  N   ALA A   6      12.733  14.402  19.003  0.00  0.00    -0.297 N 
ATOM      4  H   ALA A   6      13.744  14.247  18.816  0.00  0.00    +0.150 HD
ENDROOT
BRANCH   3   5
ATOM      5  CA  ALA A   6      11.790  14.235  17.908  0.00  0.00    +0.149 C 
ATOM      6  CB  ALA A   6      12.525  14.376  16.572  0.00  0.00    +0.031 C 
BRANCH   5   7
ATOM      7  C   ALA A   6      11.064  12.892  17.959  0.00  0.00    +0.241 C 
ATOM      8  N   ASP A   7       9.723  12.916  17.988  0.00  0.00    -0.297 N 
ATOM      9  H   ASP A   7       9.227  13.825  18.084  0.00  0.00    +0.150 HD
ATOM     10  O   ALA A   6      11.708  11.844  17.954  0.00  0.00    -0.273 OA
BRANCH   8  11
ATOM     11  CA  ASP A   7       8.956  11.685  17.886  0.00  0.00    +0.160 C 
BRANCH  11  12
ATOM     12  C   ASP A   7       9.267  11.029  16.513  0.00  0.00    +0.241 C 
ATOM     13  O   ASP A   7       9.477   9.808  16.400  0.00  0.00    -0.273 OA
ATOM     14  N   ASP A   8       9.345  11.871  15.487  0.00  0.00    -0.297 N 
ATOM     15  H   ASP A   8       9.353  12.894  15.675  0.00  0.00    +0.150 HD
BRANCH  14  16
ATOM     16  CA  ASP A   8       9.420  11.405  14.097  0.00  0.00    +0.160 C 
BRANCH  16  17
ATOM     17  C   ASP A   8      10.585  11.942  13.300  0.00  0.00    +0.241 C 
ATOM     18  O   ASP A   8      11.333  12.772  13.789  0.00  0.00    -0.273 OA
ATOM     19  N   THR A   9      10.749  11.402  12.096  0.00  0.00    -0.295 N 
ATOM     20  H   THR A   9      10.042  10.711  11.771  0.00  0.00    +0.150 HD
BRANCH  19  21
ATOM     21  CA  THR A   9      11.856  11.717  11.203  0.00  0.00    +0.176 C 
BRANCH  21  22
ATOM     22  C   THR A   9      11.327  12.595  10.057  0.00  0.00    +0.243 C 
ATOM     23  N   ILE A  10      11.961  13.752   9.837  0.00  0.00    -0.298 N 
ATOM     24  H   ILE A  10      12.805  13.959  10.408  0.00  0.00    +0.150 HD
ATOM     25  O   THR A   9      10.365  12.222   9.424  0.00  0.00    -0.273 OA
BRANCH  23  26
ATOM     26  CA  ILE A  10      11.544  14.749   8.842  0.00  0.00    +0.137 C 
BRANCH  26  27
ATOM     27  C   ILE A  10      12.737  15.138   8.019  0.00  0.00    +0.227 C 
ATOM     28  O   ILE A  10      13.771  15.543   8.573  0.00  0.00    -0.286 OA
ENDBRANCH  26  27
BRANCH  26  29
ATOM     29  CB  ILE A  10      10.978  16.086   9.479  0.00  0.00    +0.026 C 
ATOM     30  CG2 ILE A  10       9.962  16.828   8.474  0.00  0.00    +0.002 C 
BRANCH  29  31
ATOM     31  CG1 ILE A  10      10.423  15.861  10.880  0.00  0.00    +0.002 C 
ATOM     32  CD1 ILE A  10      10.323  17.158  11.710  0.00  0.00    +0.000 C 
ENDBRANCH  29  31
ENDBRANCH  26  29
ENDBRANCH  23  26
ENDBRANCH  21  22
BRANCH  21  33
ATOM     33  CB  THR A   9      12.457  10.377  10.687  0.00  0.00    +0.137 C 
ATOM     34  CG2 THR A   9      13.612  10.595   9.699  0.00  0.00    +0.034 C 
BRANCH  33  35
ATOM     35  OG1 THR A   9      13.052   9.671  11.794  0.00  0.00    -0.382 OA
ATOM     36  HG1 THR A   9      12.359   9.485  12.476  0.00  0.00    +0.210 HD
ENDBRANCH  33  35
ENDBRANCH  21  33
ENDBRANCH  19  21
ENDBRANCH  16  17
BRANCH  16  37
ATOM     37  CB  ASP A   8       8.084  11.641  13.404  0.00  0.00    +0.143 C 
BRANCH  37  38
ATOM     38  CG  ASP A   8       7.075  10.543  13.775  0.00  0.00    +0.367 C 
ATOM     39  OD2 ASP A   8       6.037  10.786  14.414  0.00  0.00    -0.246 OA
ATOM     40  OD1 ASP A   8       7.345   9.338  13.487  0.00  0.00    -0.246 OA
ENDBRANCH  37  38
ENDBRANCH  16  37
ENDBRANCH  14  16
ENDBRANCH  11  12
BRANCH  11  41
ATOM     41  CB  ASP A   7       7.451  11.992  17.925  0.00  0.00    +0.143 C 
BRANCH  41  42
ATOM     42  CG  ASP A   7       6.939  12.381  19.292  0.00  0.00    +0.367 C 
ATOM     43  OD2 ASP A   7       7.642  12.250  20.325  0.00  0.00    -0.246 OA
ATOM     44  OD1 ASP A   7       5.770  12.805  19.404  0.00  0.00    -0.246 OA
ENDBRANCH  41  42
ENDBRANCH  11  41
ENDBRANCH   8  11
ENDBRANCH   5   7
ENDBRANCH   3   5
BRANCH   1  45
ATOM     45  CA  GLY A   5      13.445  14.810  21.311  0.00  0.00    +0.176 C 
BRANCH  45  48
ATOM     46  C   THR A   4      14.872  12.867  21.112  0.00  0.00    +0.243 C 
ATOM     47  O   THR A   4      13.979  12.171  21.591  0.00  0.00    -0.273 OA
ATOM     48  N   GLY A   5      14.722  14.169  20.955  0.00  0.00    -0.295 N 
ATOM     49  H   GLY A   5      15.505  14.742  20.580  0.00  0.00    +0.150 HD
BRANCH  46  50
ATOM     50  CA  THR A   4      16.231  12.246  20.727  0.00  0.00    +0.176 C 
BRANCH  50  52
ATOM     51  C   ASP A   3      16.497  13.296  18.551  0.00  0.00    +0.241 C 
ATOM     52  N   THR A   4      16.978  13.087  19.782  0.00  0.00    -0.295 N 
ATOM     53  H   THR A   4      17.879  13.519  20.069  0.00  0.00    +0.150 HD
ATOM     54  O   ASP A   3      15.405  12.832  18.167  0.00  0.00    -0.273 OA
BRANCH  51  55
ATOM     55  CA  ASP A   3      17.329  14.154  17.609  0.00  0.00    +0.160 C 
BRANCH  55  58
ATOM     56  C   LEU A   2      19.511  13.452  16.704  0.00  0.00    +0.241 C 
ATOM     57  O   LEU A   2      20.148  14.075  17.571  0.00  0.00    -0.273 OA
ATOM     58  N   ASP A   3      18.177  13.319  16.732  0.00  0.00    -0.297 N 
ATOM     59  H   ASP A   3      17.727  12.609  16.120  0.00  0.00    +0.150 HD
BRANCH  56  60
ATOM     60  CA  LEU A   2      20.209  12.775  15.537  0.00  0.00    +0.149 C 
BRANCH  60  62
ATOM     61  C   LEU A   1      20.006  14.372  13.693  0.00  0.00    +0.238 C 
ATOM     62  N   LEU A   2      20.762  13.755  14.611  0.00  0.00    -0.297 N 
ATOM     63  H   LEU A   2      21.775  13.983  14.664  0.00  0.00    +0.150 HD
ATOM     64  O   LEU A   1      18.826  14.116  13.523  0.00  0.00    -0.274 OA
BRANCH  61  65
ATOM     65  CA  LEU A   1      20.649  15.496  12.870  0.00  0.00    +0.145 C 
BRANCH  65  66
ATOM     66  N   LEU A   1      20.414  15.251  11.449  0.00  0.00    -0.238 NA
ATOM     67  H   LEU A   1      19.524  15.593  11.033  0.00  0.00    +0.142 HD
ENDBRANCH  65  66
BRANCH  65  68
ATOM     68  CB  LEU A   1      19.984  16.828  13.246  0.00  0.00    +0.026 C 
BRANCH  68  69
ATOM     69  CG  LEU A   1      19.976  17.271  14.718  0.00  0.00    +0.002 C 
ATOM     70  CD2 LEU A   1      21.378  17.600  15.244  0.00  0.00    +0.000 C 
ATOM     71  CD1 LEU A   1      19.016  18.446  14.919  0.00  0.00    +0.000 C 
ENDBRANCH  68  69
ENDBRANCH  65  68
ENDBRANCH  61  65
ENDBRANCH  60  62
BRANCH  60  72
ATOM     72  CB  LEU A   2      21.276  11.785  16.024  0.00  0.00    +0.029 C 
BRANCH  72  73
ATOM     73  CG  LEU A   2      22.137  11.083  14.966  0.00  0.00    +0.002 C 
ATOM     74  CD2 LEU A   2      23.179  10.257  15.685  0.00  0.00    +0.000 C 
ATOM     75  CD1 LEU A   2      21.315  10.233  13.956  0.00  0.00    +0.000 C 
ENDBRANCH  72  73
ENDBRANCH  60  72
ENDBRANCH  56  60
ENDBRANCH  55  58
BRANCH  55  76
ATOM     76  CB  ASP A   3      16.418  14.984  16.735  0.00  0.00    +0.143 C 
BRANCH  76  77
ATOM     77  CG  ASP A   3      15.663  16.074  17.500  0.00  0.00    +0.367 C 
ATOM     78  OD2 ASP A   3      15.540  16.037  18.753  0.00  0.00    -0.246 OA
ATOM     79  OD1 ASP A   3      15.146  17.019  16.881  0.00  0.00    -0.246 OA
ENDBRANCH  76  77
ENDBRANCH  55  76
ENDBRANCH  51  55
ENDBRANCH  50  52
BRANCH  50  80
ATOM     80  CB  THR A   4      17.014  11.988  22.028  0.00  0.00    +0.137 C 
ATOM     81  CG2 THR A   4      18.329  11.279  21.759  0.00  0.00    +0.034 C 
BRANCH  80  82
ATOM     82  OG1 THR A   4      17.402  13.253  22.582  0.00  0.00    -0.382 OA
ATOM     83  HG1 THR A   4      16.593  13.790  22.774  0.00  0.00    +0.210 HD
ENDBRANCH  80  82
ENDBRANCH  50  80
ENDBRANCH  46  50
ENDBRANCH  45  48
ENDBRANCH   1  45
TORSDOF 36
REMARK  Name = ../refined-set-2016/2o4n/2o4n_pocket.pdb
REMARK  221 active torsions:
REMARK  status: ('A' for Active; 'I' for Inactive)
REMARK    1  A    between atoms: _1  and  _3
REMARK    2  A    between atoms: _3  and  _4
REMARK    3  A    between atoms: _3  and  _6
REMARK    4  A    between atoms: _6  and  _7
REMARK    5  A    between atoms: _7  and  _8
REMARK    6  A    between atoms: _8  and  _9
REMARK    7  A    between atoms: _18  and  _20
REMARK    8  A    between atoms: _20  and  _21
REMARK    9  A    between atoms: _20  and  _23
REMARK   10  A    between atoms: _23  and  _24
REMARK   11  A    between atoms: _27  and  _29
REMARK   12  A    between atoms: _29  and  _30
REMARK   13  A    between atoms: _29  and  _32
REMARK   14  A    between atoms: _32  and  _33
REMARK   15  A    between atoms: _36  and  _38
REMARK   16  A    between atoms: _38  and  _39
REMARK   17  A    between atoms: _38  and  _41
REMARK   18  A    between atoms: _41  and  _42
REMARK   19  A    between atoms: _45  and  _47
REMARK   20  A    between atoms: _47  and  _48
REMARK   21  A    between atoms: _47  and  _50
REMARK   22  A    between atoms: _50  and  _51
REMARK   23  A    between atoms: _54  and  _56
REMARK   24  A    between atoms: _56  and  _57
REMARK   25  A    between atoms: _56  and  _59
REMARK   26  A    between atoms: _59  and  _60
REMARK   27  A    between atoms: _63  and  _65
REMARK   28  A    between atoms: _65  and  _66
REMARK   29  A    between atoms: _68  and  _70
REMARK   30  A    between atoms: _70  and  _71
REMARK   31  A    between atoms: _74  and  _76
REMARK   32  A    between atoms: _76  and  _77
REMARK   33  A    between atoms: _76  and  _79
REMARK   34  A    between atoms: _79  and  _80
REMARK   35  A    between atoms: _83  and  _85
REMARK   36  A    between atoms: _85  and  _86
REMARK   37  A    between atoms: _85  and  _88
REMARK   38  A    between atoms: _88  and  _89
REMARK   39  A    between atoms: _92  and  _94
REMARK   40  A    between atoms: _94  and  _95
REMARK   41  A    between atoms: _94  and  _97
REMARK   42  A    between atoms: _97  and  _98
REMARK   43  A    between atoms: _101  and  _103
REMARK   44  A    between atoms: _103  and  _104
REMARK   45  A    between atoms: _103  and  _106
REMARK   46  A    between atoms: _106  and  _107
REMARK   47  A    between atoms: _110  and  _112
REMARK   48  A    between atoms: _112  and  _113
REMARK   49  A    between atoms: _112  and  _115
REMARK   50  A    between atoms: _115  and  _116
REMARK   51  A    between atoms: _119  and  _121
REMARK   52  A    between atoms: _121  and  _122
REMARK   53  A    between atoms: _121  and  _124
REMARK   54  A    between atoms: _124  and  _125
REMARK   55  A    between atoms: _125  and  _126
REMARK   56  A    between atoms: _128  and  _130
REMARK   57  A    between atoms: _130  and  _131
REMARK   58  A    between atoms: _130  and  _133
REMARK   59  A    between atoms: _133  and  _134
REMARK   60  A    between atoms: _137  and  _139
REMARK   61  A    between atoms: _139  and  _140
REMARK   62  A    between atoms: _142  and  _144
REMARK   63  A    between atoms: _144  and  _145
REMARK   64  A    between atoms: _147  and  _149
REMARK   65  A    between atoms: _149  and  _150
REMARK   66  A    between atoms: _149  and  _152
REMARK   67  A    between atoms: _152  and  _153
REMARK   68  A    between atoms: _156  and  _158
REMARK   69  A    between atoms: _158  and  _159
REMARK   70  A    between atoms: _161  and  _163
REMARK   71  A    between atoms: _163  and  _164
REMARK   72  A    between atoms: _166  and  _168
REMARK   73  A    between atoms: _168  and  _169
REMARK   74  A    between atoms: _168  and  _171
REMARK   75  A    between atoms: _171  and  _172
REMARK   76  A    between atoms: _178  and  _180
REMARK   77  A    between atoms: _180  and  _181
REMARK   78  A    between atoms: _180  and  _183
REMARK   79  A    between atoms: _183  and  _184
REMARK   80  A    between atoms: _187  and  _189
REMARK   81  A    between atoms: _189  and  _190
REMARK   82  A    between atoms: _189  and  _192
REMARK   83  A    between atoms: _195  and  _197
REMARK   84  A    between atoms: _197  and  _198
REMARK   85  A    between atoms: _197  and  _200
REMARK   86  A    between atoms: _200  and  _201
REMARK   87  A    between atoms: _204  and  _206
REMARK   88  A    between atoms: _206  and  _207
REMARK   89  A    between atoms: _206  and  _209
REMARK   90  A    between atoms: _209  and  _210
REMARK   91  A    between atoms: _214  and  _215
REMARK   92  A    between atoms: _220  and  _222
REMARK   93  A    between atoms: _222  and  _223
REMARK   94  A    between atoms: _222  and  _225
REMARK   95  A    between atoms: _225  and  _226
REMARK   96  A    between atoms: _229  and  _231
REMARK   97  A    between atoms: _231  and  _232
REMARK   98  A    between atoms: _231  and  _234
REMARK   99  A    between atoms: _234  and  _235
REMARK  100  A    between atoms: _240  and  _242
REMARK  101  A    between atoms: _242  and  _243
REMARK  102  A    between atoms: _242  and  _245
REMARK  103  A    between atoms: _248  and  _250
REMARK  104  A    between atoms: _250  and  _251
REMARK  105  A    between atoms: _250  and  _253
REMARK  106  A    between atoms: _253  and  _254
REMARK  107  A    between atoms: _257  and  _259
REMARK  108  A    between atoms: _259  and  _260
REMARK  109  A    between atoms: _262  and  _264
REMARK  110  A    between atoms: _264  and  _265
REMARK  111  A    between atoms: _264  and  _267
REMARK  112  A    between atoms: _267  and  _268
REMARK  113  A    between atoms: _268  and  _269
REMARK  114  A    between atoms: _269  and  _270
REMARK  115  A    between atoms: _279  and  _281
REMARK  116  A    between atoms: _281  and  _282
REMARK  117  A    between atoms: _281  and  _284
REMARK  118  A    between atoms: _284  and  _285
REMARK  119  A    between atoms: _290  and  _292
REMARK  120  A    between atoms: _292  and  _293
REMARK  121  A    between atoms: _292  and  _295
REMARK  122  A    between atoms: _295  and  _296
REMARK  123  A    between atoms: _296  and  _297
REMARK  124  A    between atoms: _297  and  _298
REMARK  125  A    between atoms: _308  and  _309
REMARK  126  A    between atoms: _314  and  _316
REMARK  127  A    between atoms: _316  and  _317
REMARK  128  A    between atoms: _316  and  _319
REMARK  129  A    between atoms: _319  and  _320
REMARK  130  A    between atoms: _323  and  _325
REMARK  131  A    between atoms: _325  and  _326
REMARK  132  A    between atoms: _325  and  _328
REMARK  133  A    between atoms: _328  and  _329
REMARK  134  A    between atoms: _332  and  _334
REMARK  135  A    between atoms: _334  and  _335
REMARK  136  A    between atoms: _334  and  _337
REMARK  137  A    between atoms: _337  and  _338
REMARK  138  A    between atoms: _341  and  _343
REMARK  139  A    between atoms: _343  and  _344
REMARK  140  A    between atoms: _343  and  _346
REMARK  141  A    between atoms: _346  and  _347
REMARK  142  A    between atoms: _350  and  _352
REMARK  143  A    between atoms: _352  and  _353
REMARK  144  A    between atoms: _352  and  _355
REMARK  145  A    between atoms: _355  and  _356
REMARK  146  A    between atoms: _359  and  _361
REMARK  147  A    between atoms: _361  and  _362
REMARK  148  A    between atoms: _364  and  _366
REMARK  149  A    between atoms: _366  and  _367
REMARK  150  A    between atoms: _370  and  _372
REMARK  151  A    between atoms: _372  and  _373
REMARK  152  A    between atoms: _372  and  _375
REMARK  153  A    between atoms: _375  and  _376
REMARK  154  A    between atoms: _379  and  _381
REMARK  155  A    between atoms: _381  and  _382
REMARK  156  A    between atoms: _381  and  _384
REMARK  157  A    between atoms: _384  and  _385
REMARK  158  A    between atoms: _388  and  _390
REMARK  159  A    between atoms: _390  and  _391
REMARK  160  A    between atoms: _390  and  _393
REMARK  161  A    between atoms: _393  and  _394
REMARK  162  A    between atoms: _397  and  _399
REMARK  163  A    between atoms: _399  and  _400
REMARK  164  A    between atoms: _399  and  _402
REMARK  165  A    between atoms: _402  and  _403
REMARK  166  A    between atoms: _406  and  _408
REMARK  167  A    between atoms: _408  and  _409
REMARK  168  A    between atoms: _408  and  _411
REMARK  169  A    between atoms: _411  and  _412
REMARK  170  A    between atoms: _415  and  _417
REMARK  171  A    between atoms: _417  and  _418
REMARK  172  A    between atoms: _420  and  _422
REMARK  173  A    between atoms: _422  and  _423
REMARK  174  A    between atoms: _425  and  _427
REMARK  175  A    between atoms: _427  and  _428
REMARK  176  A    between atoms: _427  and  _430
REMARK  177  A    between atoms: _430  and  _431
REMARK  178  A    between atoms: _434  and  _436
REMARK  179  A    between atoms: _436  and  _437
REMARK  180  A    between atoms: _439  and  _441
REMARK  181  A    between atoms: _441  and  _442
REMARK  182  A    between atoms: _444  and  _446
REMARK  183  A    between atoms: _446  and  _447
REMARK  184  A    between atoms: _446  and  _449
REMARK  185  A    between atoms: _449  and  _450
REMARK  186  A    between atoms: _456  and  _458
REMARK  187  A    between atoms: _458  and  _459
REMARK  188  A    between atoms: _458  and  _461
REMARK  189  A    between atoms: _461  and  _462
REMARK  190  A    between atoms: _465  and  _467
REMARK  191  A    between atoms: _467  and  _468
REMARK  192  A    between atoms: _467  and  _470
REMARK  193  A    between atoms: _470  and  _471
REMARK  194  A    between atoms: _474  and  _476
REMARK  195  A    between atoms: _476  and  _477
REMARK  196  A    between atoms: _476  and  _479
REMARK  197  A    between atoms: _479  and  _480
REMARK  198  A    between atoms: _484  and  _485
REMARK  199  A    between atoms: _490  and  _492
REMARK  200  A    between atoms: _492  and  _493
REMARK  201  A    between atoms: _492  and  _495
REMARK  202  A    between atoms: _495  and  _496
REMARK  203  A    between atoms: _499  and  _501
REMARK  204  A    between atoms: _501  and  _502
REMARK  205  A    between atoms: _501  and  _504
REMARK  206  A    between atoms: _504  and  _505
REMARK  207  A    between atoms: _510  and  _512
REMARK  208  A    between atoms: _512  and  _513
REMARK  209  A    between atoms: _512  and  _515
REMARK  210  A    between atoms: _518  and  _520
REMARK  211  A    between atoms: _520  and  _521
REMARK  212  A    between atoms: _520  and  _523
REMARK  213  A    between atoms: _523  and  _524
REMARK  214  A    between atoms: _527  and  _529
REMARK  215  A    between atoms: _529  and  _530
REMARK  216  A    between atoms: _532  and  _534
REMARK  217  A    between atoms: _534  and  _535
REMARK  218  A    between atoms: _534  and  _537
REMARK  219  A    between atoms: _537  and  _538
REMARK  220  A    between atoms: _538  and  _539
REMARK  221  A    between atoms: _539  and  _540
REMARK                            x       y       z     vdW  Elec       q    Type
REMARK                         _______ _______ _______ _____ _____    ______ ____
ROOT
ATOM      1  C   GLY A   5       7.845  23.019  17.857  0.00  0.00    +0.243 C 
ATOM      2  N   ILE A   6       9.093  23.403  18.132  0.00  0.00    -0.297 N 
ATOM      3  H   ILE A   6       9.868  22.709  18.119  0.00  0.00    +0.150 HD
ATOM      4  O   GLY A   5       6.884  23.785  17.926  0.00  0.00    -0.273 OA
ENDROOT
BRANCH   2   5
ATOM      5  CA  ILE A   6       9.364  24.789  18.449  0.00  0.00    +0.149 C 
BRANCH   5   6
ATOM      6  C   ILE A   6       9.006  25.616  17.232  0.00  0.00    +0.241 C 
ATOM      7  N   GLY A   7       8.322  26.719  17.498  0.00  0.00    -0.295 N 
ATOM      8  H   GLY A   7       8.120  26.958  18.490  0.00  0.00    +0.150 HD
ATOM      9  O   ILE A   6       9.273  25.214  16.082  0.00  0.00    -0.273 OA
BRANCH   7  10
ATOM     10  CA  GLY A   7       7.846  27.604  16.455  0.00  0.00    +0.176 C 
BRANCH  10  11
ATOM     11  C   GLY A   7       6.530  27.223  15.826  0.00  0.00    +0.243 C 
ATOM     12  N   GLY A   8       5.886  26.163  16.317  0.00  0.00    -0.295 N 
ATOM     13  H   GLY A   8       6.332  25.606  17.074  0.00  0.00    +0.150 HD
ATOM     14  O   GLY A   7       6.105  27.881  14.875  0.00  0.00    -0.273 OA
BRANCH  12  15
ATOM     15  CA  GLY A   8       4.553  25.757  15.813  0.00  0.00    +0.176 C 
BRANCH  15  16
ATOM     16  C   GLY A   8       4.534  24.591  14.827  0.00  0.00    +0.243 C 
ATOM     17  O   GLY A   8       5.431  23.730  14.840  0.00  0.00    -0.273 OA
ATOM     18  N   PHE A   9       3.542  24.610  13.924  0.00  0.00    -0.297 N 
ATOM     19  H   PHE A   9       2.957  25.467  13.850  0.00  0.00    +0.150 HD
BRANCH  18  20
ATOM     20  CA  PHE A   9       3.241  23.476  13.032  0.00  0.00    +0.153 C 
BRANCH  20  21
ATOM     21  C   PHE A   9       3.593  23.685  11.551  0.00  0.00    +0.241 C 
ATOM     22  O   PHE A   9       3.550  24.808  11.024  0.00  0.00    -0.273 OA
ATOM     23  N   ILE A  10       3.921  22.565  10.890  0.00  0.00    -0.298 N 
ATOM     24  H   ILE A  10       3.967  21.677  11.429  0.00  0.00    +0.150 HD
BRANCH  23  25
ATOM     25  CA  ILE A  10       4.218  22.515   9.456  0.00  0.00    +0.137 C 
BRANCH  25  26
ATOM     26  CB  ILE A  10       5.786  22.480   9.155  0.00  0.00    +0.026 C 
ATOM     27  CG2 ILE A  10       6.427  23.835   9.507  0.00  0.00    +0.002 C 
BRANCH  26  28
ATOM     28  CG1 ILE A  10       6.500  21.292   9.861  0.00  0.00    +0.002 C 
ATOM     29  CD1 ILE A  10       7.913  20.892   9.268  0.00  0.00    +0.000 C 
ENDBRANCH  26  28
ENDBRANCH  25  26
BRANCH  25  30
ATOM     30  C   ILE A  10       3.500  21.314   8.854  0.00  0.00    +0.227 C 
ATOM     31  O   ILE A  10       3.307  20.276   9.514  0.00  0.00    -0.286 OA
ENDBRANCH  25  30
ENDBRANCH  23  25
ENDBRANCH  20  21
BRANCH  20  32
ATOM     32  CB  PHE A   9       1.754  23.045  13.115  0.00  0.00    +0.055 C 
BRANCH  32  33
ATOM     33  CG  PHE A   9       1.379  22.361  14.408  0.00  0.00    -0.020 A 
ATOM     34  CD2 PHE A   9       1.290  23.087  15.593  0.00  0.00    -0.004 A 
ATOM     35  CE2 PHE A   9       0.950  22.445  16.819  0.00  0.00    -0.000 A 
ATOM     36  CZ  PHE A   9       0.660  21.085  16.825  0.00  0.00    -0.000 A 
ATOM     37  CE1 PHE A   9       0.744  20.349  15.630  0.00  0.00    -0.000 A 
ATOM     38  CD1 PHE A   9       1.082  20.997  14.426  0.00  0.00    -0.004 A 
ENDBRANCH  32  33
ENDBRANCH  20  32
ENDBRANCH  18  20
ENDBRANCH  15  16
ENDBRANCH  12  15
ENDBRANCH  10  11
ENDBRANCH   7  10
ENDBRANCH   5   6
BRANCH   5  39
ATOM     39  CB  ILE A   6      10.807  25.027  18.962  0.00  0.00    +0.027 C 
ATOM     40  CG2 ILE A   6      11.220  26.530  18.801  0.00  0.00    +0.002 C 
BRANCH  39  41
ATOM     41  CG1 ILE A   6      10.909  24.658  20.462  0.00  0.00    +0.002 C 
ATOM     42  CD1 ILE A   6      10.884  23.111  20.736  0.00  0.00    +0.000 C 
ENDBRANCH  39  41
ENDBRANCH   5  39
ENDBRANCH   2   5
BRANCH   1  43
ATOM     43  CA  GLY A   5       7.629  21.591  17.436  0.00  0.00    +0.176 C 
BRANCH  43  46
ATOM     44  C   GLY A   4       5.761  20.433  16.350  0.00  0.00    +0.243 C 
ATOM     45  O   GLY A   4       6.159  19.323  16.684  0.00  0.00    -0.273 OA
ATOM     46  N   GLY A   5       6.431  21.548  16.585  0.00  0.00    -0.295 N 
ATOM     47  H   GLY A   5       6.097  22.431  16.150  0.00  0.00    +0.150 HD
BRANCH  44  48
ATOM     48  CA  GLY A   4       4.485  20.591  15.569  0.00  0.00    +0.176 C 
BRANCH  48  50
ATOM     49  C   ILE A   3       3.991  19.378  13.563  0.00  0.00    +0.241 C 
ATOM     50  N   GLY A   4       4.149  19.383  14.883  0.00  0.00    -0.295 N 
ATOM     51  H   GLY A   4       4.027  18.501  15.421  0.00  0.00    +0.150 HD
ATOM     52  O   ILE A   3       4.186  20.361  12.858  0.00  0.00    -0.273 OA
BRANCH  49  53
ATOM     53  CA  ILE A   3       3.528  18.066  12.933  0.00  0.00    +0.149 C 
BRANCH  53  56
ATOM     54  C   MET A   2       1.473  17.900  11.628  0.00  0.00    +0.241 C 
ATOM     55  O   MET A   2       0.957  17.175  12.462  0.00  0.00    -0.273 OA
ATOM     56  N   ILE A   3       2.729  18.338  11.732  0.00  0.00    -0.297 N 
ATOM     57  H   ILE A   3       3.148  18.880  10.950  0.00  0.00    +0.150 HD
BRANCH  54  58
ATOM     58  CA  MET A   2       0.659  18.307  10.409  0.00  0.00    +0.149 C 
BRANCH  58  60
ATOM     59  C   ILE A   1       0.366  16.775   8.531  0.00  0.00    +0.238 C 
ATOM     60  N   MET A   2       0.174  17.072   9.807  0.00  0.00    -0.297 N 
ATOM     61  H   MET A   2      -0.344  16.396  10.404  0.00  0.00    +0.150 HD
ATOM     62  O   ILE A   1       0.968  17.504   7.782  0.00  0.00    -0.274 OA
BRANCH  59  63
ATOM     63  CA  ILE A   1      -0.252  15.457   8.010  0.00  0.00    +0.145 C 
BRANCH  63  64
ATOM     64  CB  ILE A   1       0.282  14.202   8.862  0.00  0.00    +0.025 C 
ATOM     65  CG2 ILE A   1      -0.349  12.878   8.386  0.00  0.00    +0.002 C 
BRANCH  64  66
ATOM     66  CG1 ILE A   1       1.822  14.165   8.935  0.00  0.00    +0.002 C 
ATOM     67  CD1 ILE A   1       2.401  13.014   9.804  0.00  0.00    +0.000 C 
ENDBRANCH  64  66
ENDBRANCH  63  64
BRANCH  63  68
ATOM     68  N   ILE A   1      -0.007  15.358   6.541  0.00  0.00    -0.238 NA
ATOM     69  H   ILE A   1       0.922  15.642   6.170  0.00  0.00    +0.142 HD
ENDBRANCH  63  68
ENDBRANCH  59  63
ENDBRANCH  58  60
BRANCH  58  70
ATOM     70  CB  MET A   2      -0.530  19.175  10.859  0.00  0.00    +0.041 C 
BRANCH  70  71
ATOM     71  CG  MET A   2      -1.325  19.851   9.732  0.00  0.00    +0.060 C 
BRANCH  71  72
ATOM     72  SD  MET A   2      -0.368  21.240   9.089  0.00  0.00    -0.139 S 
ATOM     73  CE  MET A   2      -0.720  22.523  10.332  0.00  0.00    +0.069 C 
ENDBRANCH  71  72
ENDBRANCH  70  71
ENDBRANCH  58  70
ENDBRANCH  54  58
ENDBRANCH  53  56
BRANCH  53  74
ATOM     74  CB  ILE A   3       4.770  17.176  12.603  0.00  0.00    +0.027 C 
ATOM     75  CG2 ILE A   3       4.307  15.787  12.091  0.00  0.00    +0.002 C 
BRANCH  74  76
ATOM     76  CG1 ILE A   3       5.741  17.925  11.647  0.00  0.00    +0.002 C 
ATOM     77  CD1 ILE A   3       6.917  17.110  11.154  0.00  0.00    +0.000 C 
ENDBRANCH  74  76
ENDBRANCH  53  74
ENDBRANCH  49  53
ENDBRANCH  48  50
ENDBRANCH  44  48
ENDBRANCH  43  46
ENDBRANCH   1  43
TORSDOF 33
REMARK  Name = ../refined-set-2016/2o4n/2o4n_pocket.pdb
REMARK  221 active torsions:
REMARK  status: ('A' for Active; 'I' for Inactive)
REMARK    1  A    between atoms: _1  and  _3
REMARK    2  A    between atoms: _3  and  _4
REMARK    3  A    between atoms: _3  and  _6
REMARK    4  A    between atoms: _6  and  _7
REMARK    5  A    between atoms: _7  and  _8
REMARK    6  A    between atoms: _8  and  _9
REMARK    7  A    between atoms: _18  and  _20
REMARK    8  A    between atoms: _20  and  _21
REMARK    9  A    between atoms: _20  and  _23
REMARK   10  A    between atoms: _23  and  _24
REMARK   11  A    between atoms: _27  and  _29
REMARK   12  A    between atoms: _29  and  _30
REMARK   13  A    between atoms: _29  and  _32
REMARK   14  A    between atoms: _32  and  _33
REMARK   15  A    between atoms: _36  and  _38
REMARK   16  A    between atoms: _38  and  _39
REMARK   17  A    between atoms: _38  and  _41
REMARK   18  A    between atoms: _41  and  _42
REMARK   19  A    between atoms: _45  and  _47
REMARK   20  A    between atoms: _47  and  _48
REMARK   21  A    between atoms: _47  and  _50
REMARK   22  A    between atoms: _50  and  _51
REMARK   23  A    between atoms: _54  and  _56
REMARK   24  A    between atoms: _56  and  _57
REMARK   25  A    between atoms: _56  and  _59
REMARK   26  A    between atoms: _59  and  _60
REMARK   27  A    between atoms: _63  and  _65
REMARK   28  A    between atoms: _65  and  _66
REMARK   29  A    between atoms: _68  and  _70
REMARK   30  A    between atoms: _70  and  _71
REMARK   31  A    between atoms: _74  and  _76
REMARK   32  A    between atoms: _76  and  _77
REMARK   33  A    between atoms: _76  and  _79
REMARK   34  A    between atoms: _79  and  _80
REMARK   35  A    between atoms: _83  and  _85
REMARK   36  A    between atoms: _85  and  _86
REMARK   37  A    between atoms: _85  and  _88
REMARK   38  A    between atoms: _88  and  _89
REMARK   39  A    between atoms: _92  and  _94
REMARK   40  A    between atoms: _94  and  _95
REMARK   41  A    between atoms: _94  and  _97
REMARK   42  A    between atoms: _97  and  _98
REMARK   43  A    between atoms: _101  and  _103
REMARK   44  A    between atoms: _103  and  _104
REMARK   45  A    between atoms: _103  and  _106
REMARK   46  A    between atoms: _106  and  _107
REMARK   47  A    between atoms: _110  and  _112
REMARK   48  A    between atoms: _112  and  _113
REMARK   49  A    between atoms: _112  and  _115
REMARK   50  A    between atoms: _115  and  _116
REMARK   51  A    between atoms: _119  and  _121
REMARK   52  A    between atoms: _121  and  _122
REMARK   53  A    between atoms: _121  and  _124
REMARK   54  A    between atoms: _124  and  _125
REMARK   55  A    between atoms: _125  and  _126
REMARK   56  A    between atoms: _128  and  _130
REMARK   57  A    between atoms: _130  and  _131
REMARK   58  A    between atoms: _130  and  _133
REMARK   59  A    between atoms: _133  and  _134
REMARK   60  A    between atoms: _137  and  _139
REMARK   61  A    between atoms: _139  and  _140
REMARK   62  A    between atoms: _142  and  _144
REMARK   63  A    between atoms: _144  and  _145
REMARK   64  A    between atoms: _147  and  _149
REMARK   65  A    between atoms: _149  and  _150
REMARK   66  A    between atoms: _149  and  _152
REMARK   67  A    between atoms: _152  and  _153
REMARK   68  A    between atoms: _156  and  _158
REMARK   69  A    between atoms: _158  and  _159
REMARK   70  A    between atoms: _161  and  _163
REMARK   71  A    between atoms: _163  and  _164
REMARK   72  A    between atoms: _166  and  _168
REMARK   73  A    between atoms: _168  and  _169
REMARK   74  A    between atoms: _168  and  _171
REMARK   75  A    between atoms: _171  and  _172
REMARK   76  A    between atoms: _178  and  _180
REMARK   77  A    between atoms: _180  and  _181
REMARK   78  A    between atoms: _180  and  _183
REMARK   79  A    between atoms: _183  and  _184
REMARK   80  A    between atoms: _187  and  _189
REMARK   81  A    between atoms: _189  and  _190
REMARK   82  A    between atoms: _189  and  _192
REMARK   83  A    between atoms: _195  and  _197
REMARK   84  A    between atoms: _197  and  _198
REMARK   85  A    between atoms: _197  and  _200
REMARK   86  A    between atoms: _200  and  _201
REMARK   87  A    between atoms: _204  and  _206
REMARK   88  A    between atoms: _206  and  _207
REMARK   89  A    between atoms: _206  and  _209
REMARK   90  A    between atoms: _209  and  _210
REMARK   91  A    between atoms: _214  and  _215
REMARK   92  A    between atoms: _220  and  _222
REMARK   93  A    between atoms: _222  and  _223
REMARK   94  A    between atoms: _222  and  _225
REMARK   95  A    between atoms: _225  and  _226
REMARK   96  A    between atoms: _229  and  _231
REMARK   97  A    between atoms: _231  and  _232
REMARK   98  A    between atoms: _231  and  _234
REMARK   99  A    between atoms: _234  and  _235
REMARK  100  A    between atoms: _240  and  _242
REMARK  101  A    between atoms: _242  and  _243
REMARK  102  A    between atoms: _242  and  _245
REMARK  103  A    between atoms: _248  and  _250
REMARK  104  A    between atoms: _250  and  _251
REMARK  105  A    between atoms: _250  and  _253
REMARK  106  A    between atoms: _253  and  _254
REMARK  107  A    between atoms: _257  and  _259
REMARK  108  A    between atoms: _259  and  _260
REMARK  109  A    between atoms: _262  and  _264
REMARK  110  A    between atoms: _264  and  _265
REMARK  111  A    between atoms: _264  and  _267
REMARK  112  A    between atoms: _267  and  _268
REMARK  113  A    between atoms: _268  and  _269
REMARK  114  A    between atoms: _269  and  _270
REMARK  115  A    between atoms: _279  and  _281
REMARK  116  A    between atoms: _281  and  _282
REMARK  117  A    between atoms: _281  and  _284
REMARK  118  A    between atoms: _284  and  _285
REMARK  119  A    between atoms: _290  and  _292
REMARK  120  A    between atoms: _292  and  _293
REMARK  121  A    between atoms: _292  and  _295
REMARK  122  A    between atoms: _295  and  _296
REMARK  123  A    between atoms: _296  and  _297
REMARK  124  A    between atoms: _297  and  _298
REMARK  125  A    between atoms: _308  and  _309
REMARK  126  A    between atoms: _314  and  _316
REMARK  127  A    between atoms: _316  and  _317
REMARK  128  A    between atoms: _316  and  _319
REMARK  129  A    between atoms: _319  and  _320
REMARK  130  A    between atoms: _323  and  _325
REMARK  131  A    between atoms: _325  and  _326
REMARK  132  A    between atoms: _325  and  _328
REMARK  133  A    between atoms: _328  and  _329
REMARK  134  A    between atoms: _332  and  _334
REMARK  135  A    between atoms: _334  and  _335
REMARK  136  A    between atoms: _334  and  _337
REMARK  137  A    between atoms: _337  and  _338
REMARK  138  A    between atoms: _341  and  _343
REMARK  139  A    between atoms: _343  and  _344
REMARK  140  A    between atoms: _343  and  _346
REMARK  141  A    between atoms: _346  and  _347
REMARK  142  A    between atoms: _350  and  _352
REMARK  143  A    between atoms: _352  and  _353
REMARK  144  A    between atoms: _352  and  _355
REMARK  145  A    between atoms: _355  and  _356
REMARK  146  A    between atoms: _359  and  _361
REMARK  147  A    between atoms: _361  and  _362
REMARK  148  A    between atoms: _364  and  _366
REMARK  149  A    between atoms: _366  and  _367
REMARK  150  A    between atoms: _370  and  _372
REMARK  151  A    between atoms: _372  and  _373
REMARK  152  A    between atoms: _372  and  _375
REMARK  153  A    between atoms: _375  and  _376
REMARK  154  A    between atoms: _379  and  _381
REMARK  155  A    between atoms: _381  and  _382
REMARK  156  A    between atoms: _381  and  _384
REMARK  157  A    between atoms: _384  and  _385
REMARK  158  A    between atoms: _388  and  _390
REMARK  159  A    between atoms: _390  and  _391
REMARK  160  A    between atoms: _390  and  _393
REMARK  161  A    between atoms: _393  and  _394
REMARK  162  A    between atoms: _397  and  _399
REMARK  163  A    between atoms: _399  and  _400
REMARK  164  A    between atoms: _399  and  _402
REMARK  165  A    between atoms: _402  and  _403
REMARK  166  A    between atoms: _406  and  _408
REMARK  167  A    between atoms: _408  and  _409
REMARK  168  A    between atoms: _408  and  _411
REMARK  169  A    between atoms: _411  and  _412
REMARK  170  A    between atoms: _415  and  _417
REMARK  171  A    between atoms: _417  and  _418
REMARK  172  A    between atoms: _420  and  _422
REMARK  173  A    between atoms: _422  and  _423
REMARK  174  A    between atoms: _425  and  _427
REMARK  175  A    between atoms: _427  and  _428
REMARK  176  A    between atoms: _427  and  _430
REMARK  177  A    between atoms: _430  and  _431
REMARK  178  A    between atoms: _434  and  _436
REMARK  179  A    between atoms: _436  and  _437
REMARK  180  A    between atoms: _439  and  _441
REMARK  181  A    between atoms: _441  and  _442
REMARK  182  A    between atoms: _444  and  _446
REMARK  183  A    between atoms: _446  and  _447
REMARK  184  A    between atoms: _446  and  _449
REMARK  185  A    between atoms: _449  and  _450
REMARK  186  A    between atoms: _456  and  _458
REMARK  187  A    between atoms: _458  and  _459
REMARK  188  A    between atoms: _458  and  _461
REMARK  189  A    between atoms: _461  and  _462
REMARK  190  A    between atoms: _465  and  _467
REMARK  191  A    between atoms: _467  and  _468
REMARK  192  A    between atoms: _467  and  _470
REMARK  193  A    between atoms: _470  and  _471
REMARK  194  A    between atoms: _474  and  _476
REMARK  195  A    between atoms: _476  and  _477
REMARK  196  A    between atoms: _476  and  _479
REMARK  197  A    between atoms: _479  and  _480
REMARK  198  A    between atoms: _484  and  _485
REMARK  199  A    between atoms: _490  and  _492
REMARK  200  A    between atoms: _492  and  _493
REMARK  201  A    between atoms: _492  and  _495
REMARK  202  A    between atoms: _495  and  _496
REMARK  203  A    between atoms: _499  and  _501
REMARK  204  A    between atoms: _501  and  _502
REMARK  205  A    between atoms: _501  and  _504
REMARK  206  A    between atoms: _504  and  _505
REMARK  207  A    between atoms: _510  and  _512
REMARK  208  A    between atoms: _512  and  _513
REMARK  209  A    between atoms: _512  and  _515
REMARK  210  A    between atoms: _518  and  _520
REMARK  211  A    between atoms: _520  and  _521
REMARK  212  A    between atoms: _520  and  _523
REMARK  213  A    between atoms: _523  and  _524
REMARK  214  A    between atoms: _527  and  _529
REMARK  215  A    between atoms: _529  and  _530
REMARK  216  A    between atoms: _532  and  _534
REMARK  217  A    between atoms: _534  and  _535
REMARK  218  A    between atoms: _534  and  _537
REMARK  219  A    between atoms: _537  and  _538
REMARK  220  A    between atoms: _538  and  _539
REMARK  221  A    between atoms: _539  and  _540
REMARK                            x       y       z     vdW  Elec       q    Type
REMARK                         _______ _______ _______ _____ _____    ______ ____
ROOT
ATOM      1  CA  VAL A   1       4.436  17.386   5.729  0.00  0.00    +0.133 C 
ENDROOT
BRANCH   1   2
ATOM      2  CB  VAL A   1       5.391  16.895   6.867  0.00  0.00    +0.023 C 
ATOM      3  CG2 VAL A   1       4.614  16.130   7.956  0.00  0.00    +0.002 C 
ATOM      4  CG1 VAL A   1       6.127  18.066   7.505  0.00  0.00    +0.002 C 
ENDBRANCH   1   2
BRANCH   1   5
ATOM      5  N   VAL A   1       3.403  18.279   6.223  0.00  0.00    -0.239 NA
ATOM      6  H   VAL A   1       2.555  17.865   6.661  0.00  0.00    +0.142 HD
ENDBRANCH   1   5
BRANCH   1   7
ATOM      7  C   VAL A   1       3.760  16.201   5.048  0.00  0.00    +0.224 C 
ATOM      8  O   VAL A   1       2.575  15.921   5.291  0.00  0.00    -0.287 OA
ENDBRANCH   1   7
TORSDOF 3
REMARK  Name = ../refined-set-2016/2o4n/2o4n_pocket.pdb
REMARK  221 active torsions:
REMARK  status: ('A' for Active; 'I' for Inactive)
REMARK    1  A    between atoms: _1  and  _3
REMARK    2  A    between atoms: _3  and  _4
REMARK    3  A    between atoms: _3  and  _6
REMARK    4  A    between atoms: _6  and  _7
REMARK    5  A    between atoms: _7  and  _8
REMARK    6  A    between atoms: _8  and  _9
REMARK    7  A    between atoms: _18  and  _20
REMARK    8  A    between atoms: _20  and  _21
REMARK    9  A    between atoms: _20  and  _23
REMARK   10  A    between atoms: _23  and  _24
REMARK   11  A    between atoms: _27  and  _29
REMARK   12  A    between atoms: _29  and  _30
REMARK   13  A    between atoms: _29  and  _32
REMARK   14  A    between atoms: _32  and  _33
REMARK   15  A    between atoms: _36  and  _38
REMARK   16  A    between atoms: _38  and  _39
REMARK   17  A    between atoms: _38  and  _41
REMARK   18  A    between atoms: _41  and  _42
REMARK   19  A    between atoms: _45  and  _47
REMARK   20  A    between atoms: _47  and  _48
REMARK   21  A    between atoms: _47  and  _50
REMARK   22  A    between atoms: _50  and  _51
REMARK   23  A    between atoms: _54  and  _56
REMARK   24  A    between atoms: _56  and  _57
REMARK   25  A    between atoms: _56  and  _59
REMARK   26  A    between atoms: _59  and  _60
REMARK   27  A    between atoms: _63  and  _65
REMARK   28  A    between atoms: _65  and  _66
REMARK   29  A    between atoms: _68  and  _70
REMARK   30  A    between atoms: _70  and  _71
REMARK   31  A    between atoms: _74  and  _76
REMARK   32  A    between atoms: _76  and  _77
REMARK   33  A    between atoms: _76  and  _79
REMARK   34  A    between atoms: _79  and  _80
REMARK   35  A    between atoms: _83  and  _85
REMARK   36  A    between atoms: _85  and  _86
REMARK   37  A    between atoms: _85  and  _88
REMARK   38  A    between atoms: _88  and  _89
REMARK   39  A    between atoms: _92  and  _94
REMARK   40  A    between atoms: _94  and  _95
REMARK   41  A    between atoms: _94  and  _97
REMARK   42  A    between atoms: _97  and  _98
REMARK   43  A    between atoms: _101  and  _103
REMARK   44  A    between atoms: _103  and  _104
REMARK   45  A    between atoms: _103  and  _106
REMARK   46  A    between atoms: _106  and  _107
REMARK   47  A    between atoms: _110  and  _112
REMARK   48  A    between atoms: _112  and  _113
REMARK   49  A    between atoms: _112  and  _115
REMARK   50  A    between atoms: _115  and  _116
REMARK   51  A    between atoms: _119  and  _121
REMARK   52  A    between atoms: _121  and  _122
REMARK   53  A    between atoms: _121  and  _124
REMARK   54  A    between atoms: _124  and  _125
REMARK   55  A    between atoms: _125  and  _126
REMARK   56  A    between atoms: _128  and  _130
REMARK   57  A    between atoms: _130  and  _131
REMARK   58  A    between atoms: _130  and  _133
REMARK   59  A    between atoms: _133  and  _134
REMARK   60  A    between atoms: _137  and  _139
REMARK   61  A    between atoms: _139  and  _140
REMARK   62  A    between atoms: _142  and  _144
REMARK   63  A    between atoms: _144  and  _145
REMARK   64  A    between atoms: _147  and  _149
REMARK   65  A    between atoms: _149  and  _150
REMARK   66  A    between atoms: _149  and  _152
REMARK   67  A    between atoms: _152  and  _153
REMARK   68  A    between atoms: _156  and  _158
REMARK   69  A    between atoms: _158  and  _159
REMARK   70  A    between atoms: _161  and  _163
REMARK   71  A    between atoms: _163  and  _164
REMARK   72  A    between atoms: _166  and  _168
REMARK   73  A    between atoms: _168  and  _169
REMARK   74  A    between atoms: _168  and  _171
REMARK   75  A    between atoms: _171  and  _172
REMARK   76  A    between atoms: _178  and  _180
REMARK   77  A    between atoms: _180  and  _181
REMARK   78  A    between atoms: _180  and  _183
REMARK   79  A    between atoms: _183  and  _184
REMARK   80  A    between atoms: _187  and  _189
REMARK   81  A    between atoms: _189  and  _190
REMARK   82  A    between atoms: _189  and  _192
REMARK   83  A    between atoms: _195  and  _197
REMARK   84  A    between atoms: _197  and  _198
REMARK   85  A    between atoms: _197  and  _200
REMARK   86  A    between atoms: _200  and  _201
REMARK   87  A    between atoms: _204  and  _206
REMARK   88  A    between atoms: _206  and  _207
REMARK   89  A    between atoms: _206  and  _209
REMARK   90  A    between atoms: _209  and  _210
REMARK   91  A    between atoms: _214  and  _215
REMARK   92  A    between atoms: _220  and  _222
REMARK   93  A    between atoms: _222  and  _223
REMARK   94  A    between atoms: _222  and  _225
REMARK   95  A    between atoms: _225  and  _226
REMARK   96  A    between atoms: _229  and  _231
REMARK   97  A    between atoms: _231  and  _232
REMARK   98  A    between atoms: _231  and  _234
REMARK   99  A    between atoms: _234  and  _235
REMARK  100  A    between atoms: _240  and  _242
REMARK  101  A    between atoms: _242  and  _243
REMARK  102  A    between atoms: _242  and  _245
REMARK  103  A    between atoms: _248  and  _250
REMARK  104  A    between atoms: _250  and  _251
REMARK  105  A    between atoms: _250  and  _253
REMARK  106  A    between atoms: _253  and  _254
REMARK  107  A    between atoms: _257  and  _259
REMARK  108  A    between atoms: _259  and  _260
REMARK  109  A    between atoms: _262  and  _264
REMARK  110  A    between atoms: _264  and  _265
REMARK  111  A    between atoms: _264  and  _267
REMARK  112  A    between atoms: _267  and  _268
REMARK  113  A    between atoms: _268  and  _269
REMARK  114  A    between atoms: _269  and  _270
REMARK  115  A    between atoms: _279  and  _281
REMARK  116  A    between atoms: _281  and  _282
REMARK  117  A    between atoms: _281  and  _284
REMARK  118  A    between atoms: _284  and  _285
REMARK  119  A    between atoms: _290  and  _292
REMARK  120  A    between atoms: _292  and  _293
REMARK  121  A    between atoms: _292  and  _295
REMARK  122  A    between atoms: _295  and  _296
REMARK  123  A    between atoms: _296  and  _297
REMARK  124  A    between atoms: _297  and  _298
REMARK  125  A    between atoms: _308  and  _309
REMARK  126  A    between atoms: _314  and  _316
REMARK  127  A    between atoms: _316  and  _317
REMARK  128  A    between atoms: _316  and  _319
REMARK  129  A    between atoms: _319  and  _320
REMARK  130  A    between atoms: _323  and  _325
REMARK  131  A    between atoms: _325  and  _326
REMARK  132  A    between atoms: _325  and  _328
REMARK  133  A    between atoms: _328  and  _329
REMARK  134  A    between atoms: _332  and  _334
REMARK  135  A    between atoms: _334  and  _335
REMARK  136  A    between atoms: _334  and  _337
REMARK  137  A    between atoms: _337  and  _338
REMARK  138  A    between atoms: _341  and  _343
REMARK  139  A    between atoms: _343  and  _344
REMARK  140  A    between atoms: _343  and  _346
REMARK  141  A    between atoms: _346  and  _347
REMARK  142  A    between atoms: _350  and  _352
REMARK  143  A    between atoms: _352  and  _353
REMARK  144  A    between atoms: _352  and  _355
REMARK  145  A    between atoms: _355  and  _356
REMARK  146  A    between atoms: _359  and  _361
REMARK  147  A    between atoms: _361  and  _362
REMARK  148  A    between atoms: _364  and  _366
REMARK  149  A    between atoms: _366  and  _367
REMARK  150  A    between atoms: _370  and  _372
REMARK  151  A    between atoms: _372  and  _373
REMARK  152  A    between atoms: _372  and  _375
REMARK  153  A    between atoms: _375  and  _376
REMARK  154  A    between atoms: _379  and  _381
REMARK  155  A    between atoms: _381  and  _382
REMARK  156  A    between atoms: _381  and  _384
REMARK  157  A    between atoms: _384  and  _385
REMARK  158  A    between atoms: _388  and  _390
REMARK  159  A    between atoms: _390  and  _391
REMARK  160  A    between atoms: _390  and  _393
REMARK  161  A    between atoms: _393  and  _394
REMARK  162  A    between atoms: _397  and  _399
REMARK  163  A    between atoms: _399  and  _400
REMARK  164  A    between atoms: _399  and  _402
REMARK  165  A    between atoms: _402  and  _403
REMARK  166  A    between atoms: _406  and  _408
REMARK  167  A    between atoms: _408  and  _409
REMARK  168  A    between atoms: _408  and  _411
REMARK  169  A    between atoms: _411  and  _412
REMARK  170  A    between atoms: _415  and  _417
REMARK  171  A    between atoms: _417  and  _418
REMARK  172  A    between atoms: _420  and  _422
REMARK  173  A    between atoms: _422  and  _423
REMARK  174  A    between atoms: _425  and  _427
REMARK  175  A    between atoms: _427  and  _428
REMARK  176  A    between atoms: _427  and  _430
REMARK  177  A    between atoms: _430  and  _431
REMARK  178  A    between atoms: _434  and  _436
REMARK  179  A    between atoms: _436  and  _437
REMARK  180  A    between atoms: _439  and  _441
REMARK  181  A    between atoms: _441  and  _442
REMARK  182  A    between atoms: _444  and  _446
REMARK  183  A    between atoms: _446  and  _447
REMARK  184  A    between atoms: _446  and  _449
REMARK  185  A    between atoms: _449  and  _450
REMARK  186  A    between atoms: _456  and  _458
REMARK  187  A    between atoms: _458  and  _459
REMARK  188  A    between atoms: _458  and  _461
REMARK  189  A    between atoms: _461  and  _462
REMARK  190  A    between atoms: _465  and  _467
REMARK  191  A    between atoms: _467  and  _468
REMARK  192  A    between atoms: _467  and  _470
REMARK  193  A    between atoms: _470  and  _471
REMARK  194  A    between atoms: _474  and  _476
REMARK  195  A    between atoms: _476  and  _477
REMARK  196  A    between atoms: _476  and  _479
REMARK  197  A    between atoms: _479  and  _480
REMARK  198  A    between atoms: _484  and  _485
REMARK  199  A    between atoms: _490  and  _492
REMARK  200  A    between atoms: _492  and  _493
REMARK  201  A    between atoms: _492  and  _495
REMARK  202  A    between atoms: _495  and  _496
REMARK  203  A    between atoms: _499  and  _501
REMARK  204  A    between atoms: _501  and  _502
REMARK  205  A    between atoms: _501  and  _504
REMARK  206  A    between atoms: _504  and  _505
REMARK  207  A    between atoms: _510  and  _512
REMARK  208  A    between atoms: _512  and  _513
REMARK  209  A    between atoms: _512  and  _515
REMARK  210  A    between atoms: _518  and  _520
REMARK  211  A    between atoms: _520  and  _521
REMARK  212  A    between atoms: _520  and  _523
REMARK  213  A    between atoms: _523  and  _524
REMARK  214  A    between atoms: _527  and  _529
REMARK  215  A    between atoms: _529  and  _530
REMARK  216  A    between atoms: _532  and  _534
REMARK  217  A    between atoms: _534  and  _535
REMARK  218  A    between atoms: _534  and  _537
REMARK  219  A    between atoms: _537  and  _538
REMARK  220  A    between atoms: _538  and  _539
REMARK  221  A    between atoms: _539  and  _540
REMARK                            x       y       z     vdW  Elec       q    Type
REMARK                         _______ _______ _______ _____ _____    ______ ____
ROOT
ATOM      1  CA  LEU A   1       8.127  12.711   6.693  0.00  0.00    +0.133 C 
ENDROOT
BRANCH   1   2
ATOM      2  N   LEU A   1       8.899  11.524   7.089  0.00  0.00    -0.239 NA
ATOM      3  H   LEU A   1       9.524  11.583   7.918  0.00  0.00    +0.142 HD
ENDBRANCH   1   2
BRANCH   1   4
ATOM      4  C   LEU A   1       8.950  13.661   5.807  0.00  0.00    +0.224 C 
ATOM      5  O   LEU A   1      10.179  13.709   5.887  0.00  0.00    -0.287 OA
ENDBRANCH   1   4
BRANCH   1   6
ATOM      6  CB  LEU A   1       7.634  13.457   7.938  0.00  0.00    +0.025 C 
BRANCH   6   7
ATOM      7  CG  LEU A   1       7.016  12.598   9.056  0.00  0.00    +0.002 C 
ATOM      8  CD2 LEU A   1       6.601  13.494  10.216  0.00  0.00    +0.000 C 
ATOM      9  CD1 LEU A   1       5.833  11.743   8.545  0.00  0.00    +0.000 C 
ENDBRANCH   6   7
ENDBRANCH   1   6
TORSDOF 4
REMARK  Name = ../refined-set-2016/2o4n/2o4n_pocket.pdb
REMARK  221 active torsions:
REMARK  status: ('A' for Active; 'I' for Inactive)
REMARK    1  A    between atoms: _1  and  _3
REMARK    2  A    between atoms: _3  and  _4
REMARK    3  A    between atoms: _3  and  _6
REMARK    4  A    between atoms: _6  and  _7
REMARK    5  A    between atoms: _7  and  _8
REMARK    6  A    between atoms: _8  and  _9
REMARK    7  A    between atoms: _18  and  _20
REMARK    8  A    between atoms: _20  and  _21
REMARK    9  A    between atoms: _20  and  _23
REMARK   10  A    between atoms: _23  and  _24
REMARK   11  A    between atoms: _27  and  _29
REMARK   12  A    between atoms: _29  and  _30
REMARK   13  A    between atoms: _29  and  _32
REMARK   14  A    between atoms: _32  and  _33
REMARK   15  A    between atoms: _36  and  _38
REMARK   16  A    between atoms: _38  and  _39
REMARK   17  A    between atoms: _38  and  _41
REMARK   18  A    between atoms: _41  and  _42
REMARK   19  A    between atoms: _45  and  _47
REMARK   20  A    between atoms: _47  and  _48
REMARK   21  A    between atoms: _47  and  _50
REMARK   22  A    between atoms: _50  and  _51
REMARK   23  A    between atoms: _54  and  _56
REMARK   24  A    between atoms: _56  and  _57
REMARK   25  A    between atoms: _56  and  _59
REMARK   26  A    between atoms: _59  and  _60
REMARK   27  A    between atoms: _63  and  _65
REMARK   28  A    between atoms: _65  and  _66
REMARK   29  A    between atoms: _68  and  _70
REMARK   30  A    between atoms: _70  and  _71
REMARK   31  A    between atoms: _74  and  _76
REMARK   32  A    between atoms: _76  and  _77
REMARK   33  A    between atoms: _76  and  _79
REMARK   34  A    between atoms: _79  and  _80
REMARK   35  A    between atoms: _83  and  _85
REMARK   36  A    between atoms: _85  and  _86
REMARK   37  A    between atoms: _85  and  _88
REMARK   38  A    between atoms: _88  and  _89
REMARK   39  A    between atoms: _92  and  _94
REMARK   40  A    between atoms: _94  and  _95
REMARK   41  A    between atoms: _94  and  _97
REMARK   42  A    between atoms: _97  and  _98
REMARK   43  A    between atoms: _101  and  _103
REMARK   44  A    between atoms: _103  and  _104
REMARK   45  A    between atoms: _103  and  _106
REMARK   46  A    between atoms: _106  and  _107
REMARK   47  A    between atoms: _110  and  _112
REMARK   48  A    between atoms: _112  and  _113
REMARK   49  A    between atoms: _112  and  _115
REMARK   50  A    between atoms: _115  and  _116
REMARK   51  A    between atoms: _119  and  _121
REMARK   52  A    between atoms: _121  and  _122
REMARK   53  A    between atoms: _121  and  _124
REMARK   54  A    between atoms: _124  and  _125
REMARK   55  A    between atoms: _125  and  _126
REMARK   56  A    between atoms: _128  and  _130
REMARK   57  A    between atoms: _130  and  _131
REMARK   58  A    between atoms: _130  and  _133
REMARK   59  A    between atoms: _133  and  _134
REMARK   60  A    between atoms: _137  and  _139
REMARK   61  A    between atoms: _139  and  _140
REMARK   62  A    between atoms: _142  and  _144
REMARK   63  A    between atoms: _144  and  _145
REMARK   64  A    between atoms: _147  and  _149
REMARK   65  A    between atoms: _149  and  _150
REMARK   66  A    between atoms: _149  and  _152
REMARK   67  A    between atoms: _152  and  _153
REMARK   68  A    between atoms: _156  and  _158
REMARK   69  A    between atoms: _158  and  _159
REMARK   70  A    between atoms: _161  and  _163
REMARK   71  A    between atoms: _163  and  _164
REMARK   72  A    between atoms: _166  and  _168
REMARK   73  A    between atoms: _168  and  _169
REMARK   74  A    between atoms: _168  and  _171
REMARK   75  A    between atoms: _171  and  _172
REMARK   76  A    between atoms: _178  and  _180
REMARK   77  A    between atoms: _180  and  _181
REMARK   78  A    between atoms: _180  and  _183
REMARK   79  A    between atoms: _183  and  _184
REMARK   80  A    between atoms: _187  and  _189
REMARK   81  A    between atoms: _189  and  _190
REMARK   82  A    between atoms: _189  and  _192
REMARK   83  A    between atoms: _195  and  _197
REMARK   84  A    between atoms: _197  and  _198
REMARK   85  A    between atoms: _197  and  _200
REMARK   86  A    between atoms: _200  and  _201
REMARK   87  A    between atoms: _204  and  _206
REMARK   88  A    between atoms: _206  and  _207
REMARK   89  A    between atoms: _206  and  _209
REMARK   90  A    between atoms: _209  and  _210
REMARK   91  A    between atoms: _214  and  _215
REMARK   92  A    between atoms: _220  and  _222
REMARK   93  A    between atoms: _222  and  _223
REMARK   94  A    between atoms: _222  and  _225
REMARK   95  A    between atoms: _225  and  _226
REMARK   96  A    between atoms: _229  and  _231
REMARK   97  A    between atoms: _231  and  _232
REMARK   98  A    between atoms: _231  and  _234
REMARK   99  A    between atoms: _234  and  _235
REMARK  100  A    between atoms: _240  and  _242
REMARK  101  A    between atoms: _242  and  _243
REMARK  102  A    between atoms: _242  and  _245
REMARK  103  A    between atoms: _248  and  _250
REMARK  104  A    between atoms: _250  and  _251
REMARK  105  A    between atoms: _250  and  _253
REMARK  106  A    between atoms: _253  and  _254
REMARK  107  A    between atoms: _257  and  _259
REMARK  108  A    between atoms: _259  and  _260
REMARK  109  A    between atoms: _262  and  _264
REMARK  110  A    between atoms: _264  and  _265
REMARK  111  A    between atoms: _264  and  _267
REMARK  112  A    between atoms: _267  and  _268
REMARK  113  A    between atoms: _268  and  _269
REMARK  114  A    between atoms: _269  and  _270
REMARK  115  A    between atoms: _279  and  _281
REMARK  116  A    between atoms: _281  and  _282
REMARK  117  A    between atoms: _281  and  _284
REMARK  118  A    between atoms: _284  and  _285
REMARK  119  A    between atoms: _290  and  _292
REMARK  120  A    between atoms: _292  and  _293
REMARK  121  A    between atoms: _292  and  _295
REMARK  122  A    between atoms: _295  and  _296
REMARK  123  A    between atoms: _296  and  _297
REMARK  124  A    between atoms: _297  and  _298
REMARK  125  A    between atoms: _308  and  _309
REMARK  126  A    between atoms: _314  and  _316
REMARK  127  A    between atoms: _316  and  _317
REMARK  128  A    between atoms: _316  and  _319
REMARK  129  A    between atoms: _319  and  _320
REMARK  130  A    between atoms: _323  and  _325
REMARK  131  A    between atoms: _325  and  _326
REMARK  132  A    between atoms: _325  and  _328
REMARK  133  A    between atoms: _328  and  _329
REMARK  134  A    between atoms: _332  and  _334
REMARK  135  A    between atoms: _334  and  _335
REMARK  136  A    between atoms: _334  and  _337
REMARK  137  A    between atoms: _337  and  _338
REMARK  138  A    between atoms: _341  and  _343
REMARK  139  A    between atoms: _343  and  _344
REMARK  140  A    between atoms: _343  and  _346
REMARK  141  A    between atoms: _346  and  _347
REMARK  142  A    between atoms: _350  and  _352
REMARK  143  A    between atoms: _352  and  _353
REMARK  144  A    between atoms: _352  and  _355
REMARK  145  A    between atoms: _355  and  _356
REMARK  146  A    between atoms: _359  and  _361
REMARK  147  A    between atoms: _361  and  _362
REMARK  148  A    between atoms: _364  and  _366
REMARK  149  A    between atoms: _366  and  _367
REMARK  150  A    between atoms: _370  and  _372
REMARK  151  A    between atoms: _372  and  _373
REMARK  152  A    between atoms: _372  and  _375
REMARK  153  A    between atoms: _375  and  _376
REMARK  154  A    between atoms: _379  and  _381
REMARK  155  A    between atoms: _381  and  _382
REMARK  156  A    between atoms: _381  and  _384
REMARK  157  A    between atoms: _384  and  _385
REMARK  158  A    between atoms: _388  and  _390
REMARK  159  A    between atoms: _390  and  _391
REMARK  160  A    between atoms: _390  and  _393
REMARK  161  A    between atoms: _393  and  _394
REMARK  162  A    between atoms: _397  and  _399
REMARK  163  A    between atoms: _399  and  _400
REMARK  164  A    between atoms: _399  and  _402
REMARK  165  A    between atoms: _402  and  _403
REMARK  166  A    between atoms: _406  and  _408
REMARK  167  A    between atoms: _408  and  _409
REMARK  168  A    between atoms: _408  and  _411
REMARK  169  A    between atoms: _411  and  _412
REMARK  170  A    between atoms: _415  and  _417
REMARK  171  A    between atoms: _417  and  _418
REMARK  172  A    between atoms: _420  and  _422
REMARK  173  A    between atoms: _422  and  _423
REMARK  174  A    between atoms: _425  and  _427
REMARK  175  A    between atoms: _427  and  _428
REMARK  176  A    between atoms: _427  and  _430
REMARK  177  A    between atoms: _430  and  _431
REMARK  178  A    between atoms: _434  and  _436
REMARK  179  A    between atoms: _436  and  _437
REMARK  180  A    between atoms: _439  and  _441
REMARK  181  A    between atoms: _441  and  _442
REMARK  182  A    between atoms: _444  and  _446
REMARK  183  A    between atoms: _446  and  _447
REMARK  184  A    between atoms: _446  and  _449
REMARK  185  A    between atoms: _449  and  _450
REMARK  186  A    between atoms: _456  and  _458
REMARK  187  A    between atoms: _458  and  _459
REMARK  188  A    between atoms: _458  and  _461
REMARK  189  A    between atoms: _461  and  _462
REMARK  190  A    between atoms: _465  and  _467
REMARK  191  A    between atoms: _467  and  _468
REMARK  192  A    between atoms: _467  and  _470
REMARK  193  A    between atoms: _470  and  _471
REMARK  194  A    between atoms: _474  and  _476
REMARK  195  A    between atoms: _476  and  _477
REMARK  196  A    between atoms: _476  and  _479
REMARK  197  A    between atoms: _479  and  _480
REMARK  198  A    between atoms: _484  and  _485
REMARK  199  A    between atoms: _490  and  _492
REMARK  200  A    between atoms: _492  and  _493
REMARK  201  A    between atoms: _492  and  _495
REMARK  202  A    between atoms: _495  and  _496
REMARK  203  A    between atoms: _499  and  _501
REMARK  204  A    between atoms: _501  and  _502
REMARK  205  A    between atoms: _501  and  _504
REMARK  206  A    between atoms: _504  and  _505
REMARK  207  A    between atoms: _510  and  _512
REMARK  208  A    between atoms: _512  and  _513
REMARK  209  A    between atoms: _512  and  _515
REMARK  210  A    between atoms: _518  and  _520
REMARK  211  A    between atoms: _520  and  _521
REMARK  212  A    between atoms: _520  and  _523
REMARK  213  A    between atoms: _523  and  _524
REMARK  214  A    between atoms: _527  and  _529
REMARK  215  A    between atoms: _529  and  _530
REMARK  216  A    between atoms: _532  and  _534
REMARK  217  A    between atoms: _534  and  _535
REMARK  218  A    between atoms: _534  and  _537
REMARK  219  A    between atoms: _537  and  _538
REMARK  220  A    between atoms: _538  and  _539
REMARK  221  A    between atoms: _539  and  _540
REMARK                            x       y       z     vdW  Elec       q    Type
REMARK                         _______ _______ _______ _____ _____    ______ ____
ROOT
ATOM      1  C   VAL A   5      15.890  13.766  11.582  0.00  0.00    +0.241 C 
ATOM      2  N   ILE A   6      16.693  12.941  12.255  0.00  0.00    -0.297 N 
ATOM      3  H   ILE A   6      17.609  13.294  12.600  0.00  0.00    +0.150 HD
ATOM      4  O   VAL A   5      14.884  13.390  11.041  0.00  0.00    -0.273 OA
ENDROOT
BRANCH   2   5
ATOM      5  CA  ILE A   6      16.316  11.546  12.521  0.00  0.00    +0.149 C 
BRANCH   5   6
ATOM      6  C   ILE A   6      15.668  11.502  13.912  0.00  0.00    +0.241 C 
ATOM      7  O   ILE A   6      16.324  11.834  14.909  0.00  0.00    -0.273 OA
ATOM      8  N   GLY A   7      14.378  11.118  13.958  0.00  0.00    -0.295 N 
ATOM      9  H   GLY A   7      13.889  10.875  13.073  0.00  0.00    +0.150 HD
BRANCH   8  10
ATOM     10  CA  GLY A   7      13.644  11.034  15.228  0.00  0.00    +0.176 C 
BRANCH  10  11
ATOM     11  C   GLY A   7      13.614   9.660  15.849  0.00  0.00    +0.243 C 
ATOM     12  N   ARG A   8      12.996   9.549  17.021  0.00  0.00    -0.297 N 
ATOM     13  H   ARG A   8      12.513  10.374  17.431  0.00  0.00    +0.150 HD
ATOM     14  O   GLY A   7      14.158   8.702  15.300  0.00  0.00    -0.273 OA
BRANCH  12  15
ATOM     15  CA  ARG A   8      12.992   8.268  17.739  0.00  0.00    +0.149 C 
BRANCH  15  16
ATOM     16  C   ARG A   8      12.441   7.059  16.981  0.00  0.00    +0.241 C 
ATOM     17  O   ARG A   8      12.927   5.967  17.220  0.00  0.00    -0.273 OA
ATOM     18  N   ASN A   9      11.428   7.220  16.115  0.00  0.00    -0.298 N 
ATOM     19  H   ASN A   9      11.028   8.168  15.964  0.00  0.00    +0.150 HD
BRANCH  18  20
ATOM     20  CA  ASN A   9      10.877   6.078  15.379  0.00  0.00    +0.146 C 
BRANCH  20  21
ATOM     21  C   ASN A   9      11.980   5.292  14.641  0.00  0.00    +0.227 C 
ATOM     22  O   ASN A   9      11.852   4.093  14.414  0.00  0.00    -0.286 OA
ENDBRANCH  20  21
BRANCH  20  23
ATOM     23  CB  ASN A   9       9.801   6.520  14.373  0.00  0.00    +0.112 C 
BRANCH  23  24
ATOM     24  CG  ASN A   9      10.396   7.202  13.148  0.00  0.00    +0.222 C 
ATOM     25  OD1 ASN A   9      11.136   8.185  13.275  0.00  0.00    -0.275 OA
ATOM     26  ND2 ASN A   9      10.091   6.669  11.948  0.00  0.00    -0.329 N 
ATOM     27 HD21 ASN A   9       9.464   5.841  11.891  0.00  0.00    +0.145 HD
ATOM     28 HD22 ASN A   9      10.483   7.085  11.079  0.00  0.00    +0.145 HD
ENDBRANCH  23  24
ENDBRANCH  20  23
ENDBRANCH  18  20
ENDBRANCH  15  16
BRANCH  15  29
ATOM     29  CB  ARG A   8      12.261   8.372  19.077  0.00  0.00    +0.033 C 
BRANCH  29  30
ATOM     30  CG  ARG A   8      12.742   9.460  19.998  0.00  0.00    +0.045 C 
BRANCH  30  31
ATOM     31  CD  ARG A   8      12.001   9.450  21.374  0.00  0.00    +0.174 C 
BRANCH  31  32
ATOM     32  NE  ARG A   8      10.588   9.826  21.196  0.00  0.00    -0.265 N 
ATOM     33  CZ  ARG A   8       9.564   8.987  21.128  0.00  0.00    +0.342 C 
ATOM     34  NH2 ARG A   8       9.741   7.660  21.190  0.00  0.00    -0.292 N 
ATOM     35 HH21 ARG A   8      10.698   7.267  21.294  0.00  0.00    +0.255 HD
ATOM     36 HH22 ARG A   8       8.921   7.023  21.134  0.00  0.00    +0.255 HD
ATOM     37  NH1 ARG A   8       8.353   9.477  20.943  0.00  0.00    -0.292 N 
ATOM     38 HH11 ARG A   8       7.536   8.836  20.887  0.00  0.00    +0.255 HD
ATOM     39 HH12 ARG A   8       8.216  10.504  20.853  0.00  0.00    +0.255 HD
ATOM     40  HE  ARG A   8      10.375  10.841  21.117  0.00  0.00    +0.259 HD
ENDBRANCH  31  32
ENDBRANCH  30  31
ENDBRANCH  29  30
ENDBRANCH  15  29
ENDBRANCH  12  15
ENDBRANCH  10  11
ENDBRANCH   8  10
ENDBRANCH   5   6
BRANCH   5  41
ATOM     41  CB  ILE A   6      17.539  10.594  12.494  0.00  0.00    +0.027 C 
ATOM     42  CG2 ILE A   6      17.091   9.106  12.639  0.00  0.00    +0.002 C 
BRANCH  41  43
ATOM     43  CG1 ILE A   6      18.398  10.803  11.243  0.00  0.00    +0.002 C 
ATOM     44  CD1 ILE A   6      17.717  10.474   9.919  0.00  0.00    +0.000 C 
ENDBRANCH  41  43
ENDBRANCH   5  41
ENDBRANCH   2   5
BRANCH   1  45
ATOM     45  CA  VAL A   5      16.272  15.245  11.490  0.00  0.00    +0.149 C 
BRANCH  45  47
ATOM     46  C   ASN A   4      17.193  16.328   9.507  0.00  0.00    +0.241 C 
ATOM     47  N   VAL A   5      16.215  15.653  10.084  0.00  0.00    -0.297 N 
ATOM     48  H   VAL A   5      15.377  15.403   9.522  0.00  0.00    +0.150 HD
ATOM     49  O   ASN A   4      18.268  16.566  10.068  0.00  0.00    -0.273 OA
BRANCH  46  50
ATOM     50  CA  ASN A   4      16.946  16.771   8.065  0.00  0.00    +0.158 C 
BRANCH  50  53
ATOM     51  C   LEU A   3      16.681  19.183   8.470  0.00  0.00    +0.241 C 
ATOM     52  O   LEU A   3      15.611  18.989   9.062  0.00  0.00    -0.273 OA
ATOM     53  N   ASN A   4      17.362  18.182   7.900  0.00  0.00    -0.297 N 
ATOM     54  H   ASN A   4      18.203  18.400   7.328  0.00  0.00    +0.150 HD
BRANCH  51  55
ATOM     55  CA  LEU A   3      17.257  20.625   8.309  0.00  0.00    +0.149 C 
BRANCH  55  57
ATOM     56  C   PRO A   2      16.285  22.911   8.268  0.00  0.00    +0.241 C 
ATOM     57  N   LEU A   3      16.209  21.612   8.572  0.00  0.00    -0.297 N 
ATOM     58  H   LEU A   3      15.338  21.277   9.031  0.00  0.00    +0.150 HD
ATOM     59  O   PRO A   2      17.254  23.422   7.686  0.00  0.00    -0.273 OA
BRANCH  56  65
ATOM     60  C   THR A   1      13.255  22.287   7.835  0.00  0.00    +0.244 C 
ATOM     61  N   PRO A   2      13.809  22.988   8.829  0.00  0.00    -0.272 N 
ATOM     62  CD  PRO A   2      13.299  23.088  10.214  0.00  0.00    +0.094 C 
ATOM     63  CG  PRO A   2      14.418  23.703  10.955  0.00  0.00    +0.024 C 
ATOM     64  CB  PRO A   2      15.225  24.516   9.940  0.00  0.00    +0.031 C 
ATOM     65  CA  PRO A   2      15.048  23.775   8.619  0.00  0.00    +0.152 C 
ATOM     66  O   THR A   1      13.743  22.265   6.700  0.00  0.00    -0.273 OA
BRANCH  60  67
ATOM     67  CA  THR A   1      11.954  21.497   8.122  0.00  0.00    +0.172 C 
BRANCH  67  68
ATOM     68  N   THR A   1      11.087  21.483   6.926  0.00  0.00    -0.236 NA
ATOM     69  H   THR A   1      10.987  20.599   6.387  0.00  0.00    +0.142 HD
ENDBRANCH  67  68
BRANCH  67  70
ATOM     70  CB  THR A   1      12.230  20.031   8.597  0.00  0.00    +0.135 C 
ATOM     71  CG2 THR A   1      12.894  19.207   7.475  0.00  0.00    +0.034 C 
BRANCH  70  72
ATOM     72  OG1 THR A   1      13.183  20.048   9.673  0.00  0.00    -0.383 OA
ATOM     73  HG1 THR A   1      14.027  20.458   9.358  0.00  0.00    +0.210 HD
ENDBRANCH  70  72
ENDBRANCH  67  70
ENDBRANCH  60  67
ENDBRANCH  56  65
ENDBRANCH  55  57
BRANCH  55  74
ATOM     74  CB  LEU A   3      18.463  20.855   9.242  0.00  0.00    +0.029 C 
BRANCH  74  75
ATOM     75  CG  LEU A   3      18.416  20.294  10.683  0.00  0.00    +0.002 C 
ATOM     76  CD2 LEU A   3      17.315  20.937  11.544  0.00  0.00    +0.000 C 
ATOM     77  CD1 LEU A   3      19.807  20.377  11.349  0.00  0.00    +0.000 C 
ENDBRANCH  74  75
ENDBRANCH  55  74
ENDBRANCH  51  55
ENDBRANCH  50  53
BRANCH  50  78
ATOM     78  CB  ASN A   4      17.710  15.851   7.122  0.00  0.00    +0.114 C 
BRANCH  78  79
ATOM     79  CG  ASN A   4      17.681  16.315   5.629  0.00  0.00    +0.222 C 
ATOM     80  OD1 ASN A   4      16.662  16.759   5.092  0.00  0.00    -0.275 OA
ATOM     81  ND2 ASN A   4      18.816  16.171   4.970  0.00  0.00    -0.329 N 
ATOM     82 HD21 ASN A   4      19.655  15.793   5.455  0.00  0.00    +0.145 HD
ATOM     83 HD22 ASN A   4      18.871  16.435   3.966  0.00  0.00    +0.145 HD
ENDBRANCH  78  79
ENDBRANCH  50  78
ENDBRANCH  46  50
ENDBRANCH  45  47
BRANCH  45  84
ATOM     84  CB  VAL A   5      15.286  16.118  12.346  0.00  0.00    +0.027 C 
ATOM     85  CG2 VAL A   5      15.097  15.520  13.737  0.00  0.00    +0.002 C 
ATOM     86  CG1 VAL A   5      15.776  17.599  12.430  0.00  0.00    +0.002 C 
ENDBRANCH  45  84
ENDBRANCH   1  45
TORSDOF 32
REMARK  Name = ../refined-set-2016/2o4n/2o4n_pocket.pdb
REMARK  221 active torsions:
REMARK  status: ('A' for Active; 'I' for Inactive)
REMARK    1  A    between atoms: _1  and  _3
REMARK    2  A    between atoms: _3  and  _4
REMARK    3  A    between atoms: _3  and  _6
REMARK    4  A    between atoms: _6  and  _7
REMARK    5  A    between atoms: _7  and  _8
REMARK    6  A    between atoms: _8  and  _9
REMARK    7  A    between atoms: _18  and  _20
REMARK    8  A    between atoms: _20  and  _21
REMARK    9  A    between atoms: _20  and  _23
REMARK   10  A    between atoms: _23  and  _24
REMARK   11  A    between atoms: _27  and  _29
REMARK   12  A    between atoms: _29  and  _30
REMARK   13  A    between atoms: _29  and  _32
REMARK   14  A    between atoms: _32  and  _33
REMARK   15  A    between atoms: _36  and  _38
REMARK   16  A    between atoms: _38  and  _39
REMARK   17  A    between atoms: _38  and  _41
REMARK   18  A    between atoms: _41  and  _42
REMARK   19  A    between atoms: _45  and  _47
REMARK   20  A    between atoms: _47  and  _48
REMARK   21  A    between atoms: _47  and  _50
REMARK   22  A    between atoms: _50  and  _51
REMARK   23  A    between atoms: _54  and  _56
REMARK   24  A    between atoms: _56  and  _57
REMARK   25  A    between atoms: _56  and  _59
REMARK   26  A    between atoms: _59  and  _60
REMARK   27  A    between atoms: _63  and  _65
REMARK   28  A    between atoms: _65  and  _66
REMARK   29  A    between atoms: _68  and  _70
REMARK   30  A    between atoms: _70  and  _71
REMARK   31  A    between atoms: _74  and  _76
REMARK   32  A    between atoms: _76  and  _77
REMARK   33  A    between atoms: _76  and  _79
REMARK   34  A    between atoms: _79  and  _80
REMARK   35  A    between atoms: _83  and  _85
REMARK   36  A    between atoms: _85  and  _86
REMARK   37  A    between atoms: _85  and  _88
REMARK   38  A    between atoms: _88  and  _89
REMARK   39  A    between atoms: _92  and  _94
REMARK   40  A    between atoms: _94  and  _95
REMARK   41  A    between atoms: _94  and  _97
REMARK   42  A    between atoms: _97  and  _98
REMARK   43  A    between atoms: _101  and  _103
REMARK   44  A    between atoms: _103  and  _104
REMARK   45  A    between atoms: _103  and  _106
REMARK   46  A    between atoms: _106  and  _107
REMARK   47  A    between atoms: _110  and  _112
REMARK   48  A    between atoms: _112  and  _113
REMARK   49  A    between atoms: _112  and  _115
REMARK   50  A    between atoms: _115  and  _116
REMARK   51  A    between atoms: _119  and  _121
REMARK   52  A    between atoms: _121  and  _122
REMARK   53  A    between atoms: _121  and  _124
REMARK   54  A    between atoms: _124  and  _125
REMARK   55  A    between atoms: _125  and  _126
REMARK   56  A    between atoms: _128  and  _130
REMARK   57  A    between atoms: _130  and  _131
REMARK   58  A    between atoms: _130  and  _133
REMARK   59  A    between atoms: _133  and  _134
REMARK   60  A    between atoms: _137  and  _139
REMARK   61  A    between atoms: _139  and  _140
REMARK   62  A    between atoms: _142  and  _144
REMARK   63  A    between atoms: _144  and  _145
REMARK   64  A    between atoms: _147  and  _149
REMARK   65  A    between atoms: _149  and  _150
REMARK   66  A    between atoms: _149  and  _152
REMARK   67  A    between atoms: _152  and  _153
REMARK   68  A    between atoms: _156  and  _158
REMARK   69  A    between atoms: _158  and  _159
REMARK   70  A    between atoms: _161  and  _163
REMARK   71  A    between atoms: _163  and  _164
REMARK   72  A    between atoms: _166  and  _168
REMARK   73  A    between atoms: _168  and  _169
REMARK   74  A    between atoms: _168  and  _171
REMARK   75  A    between atoms: _171  and  _172
REMARK   76  A    between atoms: _178  and  _180
REMARK   77  A    between atoms: _180  and  _181
REMARK   78  A    between atoms: _180  and  _183
REMARK   79  A    between atoms: _183  and  _184
REMARK   80  A    between atoms: _187  and  _189
REMARK   81  A    between atoms: _189  and  _190
REMARK   82  A    between atoms: _189  and  _192
REMARK   83  A    between atoms: _195  and  _197
REMARK   84  A    between atoms: _197  and  _198
REMARK   85  A    between atoms: _197  and  _200
REMARK   86  A    between atoms: _200  and  _201
REMARK   87  A    between atoms: _204  and  _206
REMARK   88  A    between atoms: _206  and  _207
REMARK   89  A    between atoms: _206  and  _209
REMARK   90  A    between atoms: _209  and  _210
REMARK   91  A    between atoms: _214  and  _215
REMARK   92  A    between atoms: _220  and  _222
REMARK   93  A    between atoms: _222  and  _223
REMARK   94  A    between atoms: _222  and  _225
REMARK   95  A    between atoms: _225  and  _226
REMARK   96  A    between atoms: _229  and  _231
REMARK   97  A    between atoms: _231  and  _232
REMARK   98  A    between atoms: _231  and  _234
REMARK   99  A    between atoms: _234  and  _235
REMARK  100  A    between atoms: _240  and  _242
REMARK  101  A    between atoms: _242  and  _243
REMARK  102  A    between atoms: _242  and  _245
REMARK  103  A    between atoms: _248  and  _250
REMARK  104  A    between atoms: _250  and  _251
REMARK  105  A    between atoms: _250  and  _253
REMARK  106  A    between atoms: _253  and  _254
REMARK  107  A    between atoms: _257  and  _259
REMARK  108  A    between atoms: _259  and  _260
REMARK  109  A    between atoms: _262  and  _264
REMARK  110  A    between atoms: _264  and  _265
REMARK  111  A    between atoms: _264  and  _267
REMARK  112  A    between atoms: _267  and  _268
REMARK  113  A    between atoms: _268  and  _269
REMARK  114  A    between atoms: _269  and  _270
REMARK  115  A    between atoms: _279  and  _281
REMARK  116  A    between atoms: _281  and  _282
REMARK  117  A    between atoms: _281  and  _284
REMARK  118  A    between atoms: _284  and  _285
REMARK  119  A    between atoms: _290  and  _292
REMARK  120  A    between atoms: _292  and  _293
REMARK  121  A    between atoms: _292  and  _295
REMARK  122  A    between atoms: _295  and  _296
REMARK  123  A    between atoms: _296  and  _297
REMARK  124  A    between atoms: _297  and  _298
REMARK  125  A    between atoms: _308  and  _309
REMARK  126  A    between atoms: _314  and  _316
REMARK  127  A    between atoms: _316  and  _317
REMARK  128  A    between atoms: _316  and  _319
REMARK  129  A    between atoms: _319  and  _320
REMARK  130  A    between atoms: _323  and  _325
REMARK  131  A    between atoms: _325  and  _326
REMARK  132  A    between atoms: _325  and  _328
REMARK  133  A    between atoms: _328  and  _329
REMARK  134  A    between atoms: _332  and  _334
REMARK  135  A    between atoms: _334  and  _335
REMARK  136  A    between atoms: _334  and  _337
REMARK  137  A    between atoms: _337  and  _338
REMARK  138  A    between atoms: _341  and  _343
REMARK  139  A    between atoms: _343  and  _344
REMARK  140  A    between atoms: _343  and  _346
REMARK  141  A    between atoms: _346  and  _347
REMARK  142  A    between atoms: _350  and  _352
REMARK  143  A    between atoms: _352  and  _353
REMARK  144  A    between atoms: _352  and  _355
REMARK  145  A    between atoms: _355  and  _356
REMARK  146  A    between atoms: _359  and  _361
REMARK  147  A    between atoms: _361  and  _362
REMARK  148  A    between atoms: _364  and  _366
REMARK  149  A    between atoms: _366  and  _367
REMARK  150  A    between atoms: _370  and  _372
REMARK  151  A    between atoms: _372  and  _373
REMARK  152  A    between atoms: _372  and  _375
REMARK  153  A    between atoms: _375  and  _376
REMARK  154  A    between atoms: _379  and  _381
REMARK  155  A    between atoms: _381  and  _382
REMARK  156  A    between atoms: _381  and  _384
REMARK  157  A    between atoms: _384  and  _385
REMARK  158  A    between atoms: _388  and  _390
REMARK  159  A    between atoms: _390  and  _391
REMARK  160  A    between atoms: _390  and  _393
REMARK  161  A    between atoms: _393  and  _394
REMARK  162  A    between atoms: _397  and  _399
REMARK  163  A    between atoms: _399  and  _400
REMARK  164  A    between atoms: _399  and  _402
REMARK  165  A    between atoms: _402  and  _403
REMARK  166  A    between atoms: _406  and  _408
REMARK  167  A    between atoms: _408  and  _409
REMARK  168  A    between atoms: _408  and  _411
REMARK  169  A    between atoms: _411  and  _412
REMARK  170  A    between atoms: _415  and  _417
REMARK  171  A    between atoms: _417  and  _418
REMARK  172  A    between atoms: _420  and  _422
REMARK  173  A    between atoms: _422  and  _423
REMARK  174  A    between atoms: _425  and  _427
REMARK  175  A    between atoms: _427  and  _428
REMARK  176  A    between atoms: _427  and  _430
REMARK  177  A    between atoms: _430  and  _431
REMARK  178  A    between atoms: _434  and  _436
REMARK  179  A    between atoms: _436  and  _437
REMARK  180  A    between atoms: _439  and  _441
REMARK  181  A    between atoms: _441  and  _442
REMARK  182  A    between atoms: _444  and  _446
REMARK  183  A    between atoms: _446  and  _447
REMARK  184  A    between atoms: _446  and  _449
REMARK  185  A    between atoms: _449  and  _450
REMARK  186  A    between atoms: _456  and  _458
REMARK  187  A    between atoms: _458  and  _459
REMARK  188  A    between atoms: _458  and  _461
REMARK  189  A    between atoms: _461  and  _462
REMARK  190  A    between atoms: _465  and  _467
REMARK  191  A    between atoms: _467  and  _468
REMARK  192  A    between atoms: _467  and  _470
REMARK  193  A    between atoms: _470  and  _471
REMARK  194  A    between atoms: _474  and  _476
REMARK  195  A    between atoms: _476  and  _477
REMARK  196  A    between atoms: _476  and  _479
REMARK  197  A    between atoms: _479  and  _480
REMARK  198  A    between atoms: _484  and  _485
REMARK  199  A    between atoms: _490  and  _492
REMARK  200  A    between atoms: _492  and  _493
REMARK  201  A    between atoms: _492  and  _495
REMARK  202  A    between atoms: _495  and  _496
REMARK  203  A    between atoms: _499  and  _501
REMARK  204  A    between atoms: _501  and  _502
REMARK  205  A    between atoms: _501  and  _504
REMARK  206  A    between atoms: _504  and  _505
REMARK  207  A    between atoms: _510  and  _512
REMARK  208  A    between atoms: _512  and  _513
REMARK  209  A    between atoms: _512  and  _515
REMARK  210  A    between atoms: _518  and  _520
REMARK  211  A    between atoms: _520  and  _521
REMARK  212  A    between atoms: _520  and  _523
REMARK  213  A    between atoms: _523  and  _524
REMARK  214  A    between atoms: _527  and  _529
REMARK  215  A    between atoms: _529  and  _530
REMARK  216  A    between atoms: _532  and  _534
REMARK  217  A    between atoms: _534  and  _535
REMARK  218  A    between atoms: _534  and  _537
REMARK  219  A    between atoms: _537  and  _538
REMARK  220  A    between atoms: _538  and  _539
REMARK  221  A    between atoms: _539  and  _540
REMARK                            x       y       z     vdW  Elec       q    Type
REMARK                         _______ _______ _______ _____ _____    ______ ____
ROOT
ATOM      1  C   ARG A   1      10.805  10.217  26.064  0.00  0.00    +0.241 C 
ATOM      2  O   ARG A   1      10.373   9.760  27.125  0.00  0.00    -0.273 OA
ATOM      3  N   PRO A   2      12.053  10.686  25.906  0.00  0.00    -0.272 N 
ATOM      4  CA  PRO A   2      12.995  10.780  27.013  0.00  0.00    +0.152 C 
ATOM      5  CB  PRO A   2      14.361  10.919  26.322  0.00  0.00    +0.031 C 
ATOM      6  CG  PRO A   2      14.063  11.503  24.999  0.00  0.00    +0.024 C 
ATOM      7  CD  PRO A   2      12.665  11.081  24.623  0.00  0.00    +0.094 C 
ENDROOT
BRANCH   4   8
ATOM      8  C   PRO A   2      12.688  11.932  27.971  0.00  0.00    +0.241 C 
ATOM      9  N   LEU A   3      11.543  11.820  28.655  0.00  0.00    -0.298 N 
ATOM     10  H   LEU A   3      10.965  10.966  28.525  0.00  0.00    +0.150 HD
ATOM     11  O   PRO A   2      13.485  12.873  28.102  0.00  0.00    -0.273 OA
BRANCH   9  12
ATOM     12  CA  LEU A   3      11.072  12.855  29.581  0.00  0.00    +0.137 C 
BRANCH  12  13
ATOM     13  C   LEU A   3      11.628  12.503  30.928  0.00  0.00    +0.227 C 
ATOM     14  O   LEU A   3      11.519  11.356  31.352  0.00  0.00    -0.286 OA
ENDBRANCH  12  13
BRANCH  12  15
ATOM     15  CB  LEU A   3       9.547  12.871  29.659  0.00  0.00    +0.028 C 
BRANCH  15  16
ATOM     16  CG  LEU A   3       8.708  13.258  28.428  0.00  0.00    +0.002 C 
ATOM     17  CD2 LEU A   3       7.249  12.901  28.656  0.00  0.00    +0.000 C 
ATOM     18  CD1 LEU A   3       8.862  14.770  28.075  0.00  0.00    +0.000 C 
ENDBRANCH  15  16
ENDBRANCH  12  15
ENDBRANCH   9  12
ENDBRANCH   4   8
BRANCH   1  19
ATOM     19  CA  ARG A   1       9.896  10.214  24.832  0.00  0.00    +0.145 C 
BRANCH  19  20
ATOM     20  N   ARG A   1       9.219   8.884  24.693  0.00  0.00    -0.238 NA
ATOM     21  H   ARG A   1       8.181   8.834  24.662  0.00  0.00    +0.142 HD
ENDBRANCH  19  20
BRANCH  19  22
ATOM     22  CB  ARG A   1       8.865  11.325  25.019  0.00  0.00    +0.030 C 
BRANCH  22  23
ATOM     23  CG  ARG A   1       7.985  11.534  23.830  0.00  0.00    +0.045 C 
BRANCH  23  24
ATOM     24  CD  ARG A   1       6.986  12.630  24.028  0.00  0.00    +0.174 C 
BRANCH  24  25
ATOM     25  NE  ARG A   1       6.343  12.984  22.760  0.00  0.00    -0.265 N 
ATOM     26  CZ  ARG A   1       5.273  13.776  22.696  0.00  0.00    +0.342 C 
ATOM     27  NH2 ARG A   1       4.744  14.262  23.823  0.00  0.00    -0.292 N 
ATOM     28 HH21 ARG A   1       5.167  14.022  24.742  0.00  0.00    +0.255 HD
ATOM     29 HH22 ARG A   1       3.909  14.881  23.781  0.00  0.00    +0.255 HD
ATOM     30  NH1 ARG A   1       4.734  14.088  21.534  0.00  0.00    -0.292 N 
ATOM     31 HH11 ARG A   1       3.899  14.707  21.498  0.00  0.00    +0.255 HD
ATOM     32 HH12 ARG A   1       5.144  13.715  20.654  0.00  0.00    +0.255 HD
ATOM     33  HE  ARG A   1       6.737  12.603  21.876  0.00  0.00    +0.259 HD
ENDBRANCH  24  25
ENDBRANCH  23  24
ENDBRANCH  22  23
ENDBRANCH  19  22
ENDBRANCH   1  19
TORSDOF 11
REMARK  Name = ../refined-set-2016/2o4n/2o4n_pocket.pdb
REMARK  221 active torsions:
REMARK  status: ('A' for Active; 'I' for Inactive)
REMARK    1  A    between atoms: _1  and  _3
REMARK    2  A    between atoms: _3  and  _4
REMARK    3  A    between atoms: _3  and  _6
REMARK    4  A    between atoms: _6  and  _7
REMARK    5  A    between atoms: _7  and  _8
REMARK    6  A    between atoms: _8  and  _9
REMARK    7  A    between atoms: _18  and  _20
REMARK    8  A    between atoms: _20  and  _21
REMARK    9  A    between atoms: _20  and  _23
REMARK   10  A    between atoms: _23  and  _24
REMARK   11  A    between atoms: _27  and  _29
REMARK   12  A    between atoms: _29  and  _30
REMARK   13  A    between atoms: _29  and  _32
REMARK   14  A    between atoms: _32  and  _33
REMARK   15  A    between atoms: _36  and  _38
REMARK   16  A    between atoms: _38  and  _39
REMARK   17  A    between atoms: _38  and  _41
REMARK   18  A    between atoms: _41  and  _42
REMARK   19  A    between atoms: _45  and  _47
REMARK   20  A    between atoms: _47  and  _48
REMARK   21  A    between atoms: _47  and  _50
REMARK   22  A    between atoms: _50  and  _51
REMARK   23  A    between atoms: _54  and  _56
REMARK   24  A    between atoms: _56  and  _57
REMARK   25  A    between atoms: _56  and  _59
REMARK   26  A    between atoms: _59  and  _60
REMARK   27  A    between atoms: _63  and  _65
REMARK   28  A    between atoms: _65  and  _66
REMARK   29  A    between atoms: _68  and  _70
REMARK   30  A    between atoms: _70  and  _71
REMARK   31  A    between atoms: _74  and  _76
REMARK   32  A    between atoms: _76  and  _77
REMARK   33  A    between atoms: _76  and  _79
REMARK   34  A    between atoms: _79  and  _80
REMARK   35  A    between atoms: _83  and  _85
REMARK   36  A    between atoms: _85  and  _86
REMARK   37  A    between atoms: _85  and  _88
REMARK   38  A    between atoms: _88  and  _89
REMARK   39  A    between atoms: _92  and  _94
REMARK   40  A    between atoms: _94  and  _95
REMARK   41  A    between atoms: _94  and  _97
REMARK   42  A    between atoms: _97  and  _98
REMARK   43  A    between atoms: _101  and  _103
REMARK   44  A    between atoms: _103  and  _104
REMARK   45  A    between atoms: _103  and  _106
REMARK   46  A    between atoms: _106  and  _107
REMARK   47  A    between atoms: _110  and  _112
REMARK   48  A    between atoms: _112  and  _113
REMARK   49  A    between atoms: _112  and  _115
REMARK   50  A    between atoms: _115  and  _116
REMARK   51  A    between atoms: _119  and  _121
REMARK   52  A    between atoms: _121  and  _122
REMARK   53  A    between atoms: _121  and  _124
REMARK   54  A    between atoms: _124  and  _125
REMARK   55  A    between atoms: _125  and  _126
REMARK   56  A    between atoms: _128  and  _130
REMARK   57  A    between atoms: _130  and  _131
REMARK   58  A    between atoms: _130  and  _133
REMARK   59  A    between atoms: _133  and  _134
REMARK   60  A    between atoms: _137  and  _139
REMARK   61  A    between atoms: _139  and  _140
REMARK   62  A    between atoms: _142  and  _144
REMARK   63  A    between atoms: _144  and  _145
REMARK   64  A    between atoms: _147  and  _149
REMARK   65  A    between atoms: _149  and  _150
REMARK   66  A    between atoms: _149  and  _152
REMARK   67  A    between atoms: _152  and  _153
REMARK   68  A    between atoms: _156  and  _158
REMARK   69  A    between atoms: _158  and  _159
REMARK   70  A    between atoms: _161  and  _163
REMARK   71  A    between atoms: _163  and  _164
REMARK   72  A    between atoms: _166  and  _168
REMARK   73  A    between atoms: _168  and  _169
REMARK   74  A    between atoms: _168  and  _171
REMARK   75  A    between atoms: _171  and  _172
REMARK   76  A    between atoms: _178  and  _180
REMARK   77  A    between atoms: _180  and  _181
REMARK   78  A    between atoms: _180  and  _183
REMARK   79  A    between atoms: _183  and  _184
REMARK   80  A    between atoms: _187  and  _189
REMARK   81  A    between atoms: _189  and  _190
REMARK   82  A    between atoms: _189  and  _192
REMARK   83  A    between atoms: _195  and  _197
REMARK   84  A    between atoms: _197  and  _198
REMARK   85  A    between atoms: _197  and  _200
REMARK   86  A    between atoms: _200  and  _201
REMARK   87  A    between atoms: _204  and  _206
REMARK   88  A    between atoms: _206  and  _207
REMARK   89  A    between atoms: _206  and  _209
REMARK   90  A    between atoms: _209  and  _210
REMARK   91  A    between atoms: _214  and  _215
REMARK   92  A    between atoms: _220  and  _222
REMARK   93  A    between atoms: _222  and  _223
REMARK   94  A    between atoms: _222  and  _225
REMARK   95  A    between atoms: _225  and  _226
REMARK   96  A    between atoms: _229  and  _231
REMARK   97  A    between atoms: _231  and  _232
REMARK   98  A    between atoms: _231  and  _234
REMARK   99  A    between atoms: _234  and  _235
REMARK  100  A    between atoms: _240  and  _242
REMARK  101  A    between atoms: _242  and  _243
REMARK  102  A    between atoms: _242  and  _245
REMARK  103  A    between atoms: _248  and  _250
REMARK  104  A    between atoms: _250  and  _251
REMARK  105  A    between atoms: _250  and  _253
REMARK  106  A    between atoms: _253  and  _254
REMARK  107  A    between atoms: _257  and  _259
REMARK  108  A    between atoms: _259  and  _260
REMARK  109  A    between atoms: _262  and  _264
REMARK  110  A    between atoms: _264  and  _265
REMARK  111  A    between atoms: _264  and  _267
REMARK  112  A    between atoms: _267  and  _268
REMARK  113  A    between atoms: _268  and  _269
REMARK  114  A    between atoms: _269  and  _270
REMARK  115  A    between atoms: _279  and  _281
REMARK  116  A    between atoms: _281  and  _282
REMARK  117  A    between atoms: _281  and  _284
REMARK  118  A    between atoms: _284  and  _285
REMARK  119  A    between atoms: _290  and  _292
REMARK  120  A    between atoms: _292  and  _293
REMARK  121  A    between atoms: _292  and  _295
REMARK  122  A    between atoms: _295  and  _296
REMARK  123  A    between atoms: _296  and  _297
REMARK  124  A    between atoms: _297  and  _298
REMARK  125  A    between atoms: _308  and  _309
REMARK  126  A    between atoms: _314  and  _316
REMARK  127  A    between atoms: _316  and  _317
REMARK  128  A    between atoms: _316  and  _319
REMARK  129  A    between atoms: _319  and  _320
REMARK  130  A    between atoms: _323  and  _325
REMARK  131  A    between atoms: _325  and  _326
REMARK  132  A    between atoms: _325  and  _328
REMARK  133  A    between atoms: _328  and  _329
REMARK  134  A    between atoms: _332  and  _334
REMARK  135  A    between atoms: _334  and  _335
REMARK  136  A    between atoms: _334  and  _337
REMARK  137  A    between atoms: _337  and  _338
REMARK  138  A    between atoms: _341  and  _343
REMARK  139  A    between atoms: _343  and  _344
REMARK  140  A    between atoms: _343  and  _346
REMARK  141  A    between atoms: _346  and  _347
REMARK  142  A    between atoms: _350  and  _352
REMARK  143  A    between atoms: _352  and  _353
REMARK  144  A    between atoms: _352  and  _355
REMARK  145  A    between atoms: _355  and  _356
REMARK  146  A    between atoms: _359  and  _361
REMARK  147  A    between atoms: _361  and  _362
REMARK  148  A    between atoms: _364  and  _366
REMARK  149  A    between atoms: _366  and  _367
REMARK  150  A    between atoms: _370  and  _372
REMARK  151  A    between atoms: _372  and  _373
REMARK  152  A    between atoms: _372  and  _375
REMARK  153  A    between atoms: _375  and  _376
REMARK  154  A    between atoms: _379  and  _381
REMARK  155  A    between atoms: _381  and  _382
REMARK  156  A    between atoms: _381  and  _384
REMARK  157  A    between atoms: _384  and  _385
REMARK  158  A    between atoms: _388  and  _390
REMARK  159  A    between atoms: _390  and  _391
REMARK  160  A    between atoms: _390  and  _393
REMARK  161  A    between atoms: _393  and  _394
REMARK  162  A    between atoms: _397  and  _399
REMARK  163  A    between atoms: _399  and  _400
REMARK  164  A    between atoms: _399  and  _402
REMARK  165  A    between atoms: _402  and  _403
REMARK  166  A    between atoms: _406  and  _408
REMARK  167  A    between atoms: _408  and  _409
REMARK  168  A    between atoms: _408  and  _411
REMARK  169  A    between atoms: _411  and  _412
REMARK  170  A    between atoms: _415  and  _417
REMARK  171  A    between atoms: _417  and  _418
REMARK  172  A    between atoms: _420  and  _422
REMARK  173  A    between atoms: _422  and  _423
REMARK  174  A    between atoms: _425  and  _427
REMARK  175  A    between atoms: _427  and  _428
REMARK  176  A    between atoms: _427  and  _430
REMARK  177  A    between atoms: _430  and  _431
REMARK  178  A    between atoms: _434  and  _436
REMARK  179  A    between atoms: _436  and  _437
REMARK  180  A    between atoms: _439  and  _441
REMARK  181  A    between atoms: _441  and  _442
REMARK  182  A    between atoms: _444  and  _446
REMARK  183  A    between atoms: _446  and  _447
REMARK  184  A    between atoms: _446  and  _449
REMARK  185  A    between atoms: _449  and  _450
REMARK  186  A    between atoms: _456  and  _458
REMARK  187  A    between atoms: _458  and  _459
REMARK  188  A    between atoms: _458  and  _461
REMARK  189  A    between atoms: _461  and  _462
REMARK  190  A    between atoms: _465  and  _467
REMARK  191  A    between atoms: _467  and  _468
REMARK  192  A    between atoms: _467  and  _470
REMARK  193  A    between atoms: _470  and  _471
REMARK  194  A    between atoms: _474  and  _476
REMARK  195  A    between atoms: _476  and  _477
REMARK  196  A    between atoms: _476  and  _479
REMARK  197  A    between atoms: _479  and  _480
REMARK  198  A    between atoms: _484  and  _485
REMARK  199  A    between atoms: _490  and  _492
REMARK  200  A    between atoms: _492  and  _493
REMARK  201  A    between atoms: _492  and  _495
REMARK  202  A    between atoms: _495  and  _496
REMARK  203  A    between atoms: _499  and  _501
REMARK  204  A    between atoms: _501  and  _502
REMARK  205  A    between atoms: _501  and  _504
REMARK  206  A    between atoms: _504  and  _505
REMARK  207  A    between atoms: _510  and  _512
REMARK  208  A    between atoms: _512  and  _513
REMARK  209  A    between atoms: _512  and  _515
REMARK  210  A    between atoms: _518  and  _520
REMARK  211  A    between atoms: _520  and  _521
REMARK  212  A    between atoms: _520  and  _523
REMARK  213  A    between atoms: _523  and  _524
REMARK  214  A    between atoms: _527  and  _529
REMARK  215  A    between atoms: _529  and  _530
REMARK  216  A    between atoms: _532  and  _534
REMARK  217  A    between atoms: _534  and  _535
REMARK  218  A    between atoms: _534  and  _537
REMARK  219  A    between atoms: _537  and  _538
REMARK  220  A    between atoms: _538  and  _539
REMARK  221  A    between atoms: _539  and  _540
REMARK                            x       y       z     vdW  Elec       q    Type
REMARK                         _______ _______ _______ _____ _____    ______ ____
ROOT
ATOM      1  C   GLY A   5      18.489  19.515  18.827  0.00  0.00    +0.243 C 
ATOM      2  N   ALA A   6      18.516  19.851  20.125  0.00  0.00    -0.297 N 
ATOM      3  H   ALA A   6      18.607  19.095  20.833  0.00  0.00    +0.150 HD
ATOM      4  O   GLY A   5      18.382  20.350  17.918  0.00  0.00    -0.273 OA
ENDROOT
BRANCH   2   5
ATOM      5  CA  ALA A   6      18.423  21.241  20.589  0.00  0.00    +0.149 C 
ATOM      6  CB  ALA A   6      17.397  21.336  21.754  0.00  0.00    +0.031 C 
BRANCH   5   7
ATOM      7  C   ALA A   6      19.806  21.740  21.034  0.00  0.00    +0.241 C 
ATOM      8  O   ALA A   6      20.466  21.089  21.877  0.00  0.00    -0.273 OA
ATOM      9  N   ASP A   7      20.281  22.859  20.483  0.00  0.00    -0.297 N 
ATOM     10  H   ASP A   7      19.750  23.327  19.721  0.00  0.00    +0.150 HD
BRANCH   9  11
ATOM     11  CA  ASP A   7      21.549  23.430  20.949  0.00  0.00    +0.160 C 
BRANCH  11  12
ATOM     12  C   ASP A   7      21.398  23.886  22.414  0.00  0.00    +0.241 C 
ATOM     13  O   ASP A   7      22.339  23.815  23.217  0.00  0.00    -0.273 OA
ATOM     14  N   ASP A   8      20.196  24.382  22.726  0.00  0.00    -0.297 N 
ATOM     15  H   ASP A   8      19.411  24.197  22.069  0.00  0.00    +0.150 HD
BRANCH  14  16
ATOM     16  CA  ASP A   8      19.910  25.162  23.920  0.00  0.00    +0.160 C 
BRANCH  16  17
ATOM     17  C   ASP A   8      18.775  24.567  24.690  0.00  0.00    +0.241 C 
ATOM     18  N   THR A   9      18.662  25.024  25.939  0.00  0.00    -0.295 N 
ATOM     19  H   THR A   9      19.326  25.765  26.243  0.00  0.00    +0.150 HD
ATOM     20  O   ASP A   8      18.003  23.742  24.165  0.00  0.00    -0.273 OA
BRANCH  18  21
ATOM     21  CA  THR A   9      17.676  24.561  26.909  0.00  0.00    +0.176 C 
BRANCH  21  22
ATOM     22  C   THR A   9      16.550  25.609  26.998  0.00  0.00    +0.243 C 
ATOM     23  O   THR A   9      16.816  26.770  27.250  0.00  0.00    -0.273 OA
ATOM     24  N   ILE A  10      15.304  25.201  26.775  0.00  0.00    -0.298 N 
ATOM     25  H   ILE A  10      15.129  24.200  26.556  0.00  0.00    +0.150 HD
BRANCH  24  26
ATOM     26  CA  ILE A  10      14.173  26.129  26.831  0.00  0.00    +0.137 C 
BRANCH  26  27
ATOM     27  CB  ILE A  10      13.658  26.530  25.417  0.00  0.00    +0.026 C 
ATOM     28  CG2 ILE A  10      13.304  25.245  24.584  0.00  0.00    +0.002 C 
BRANCH  27  29
ATOM     29  CG1 ILE A  10      12.482  27.528  25.560  0.00  0.00    +0.002 C 
ATOM     30  CD1 ILE A  10      12.153  28.287  24.264  0.00  0.00    +0.000 C 
ENDBRANCH  27  29
ENDBRANCH  26  27
BRANCH  26  31
ATOM     31  C   ILE A  10      13.022  25.613  27.674  0.00  0.00    +0.227 C 
ATOM     32  O   ILE A  10      12.603  24.465  27.545  0.00  0.00    -0.286 OA
ENDBRANCH  26  31
ENDBRANCH  24  26
ENDBRANCH  21  22
BRANCH  21  33
ATOM     33  CB  THR A   9      18.405  24.402  28.266  0.00  0.00    +0.137 C 
ATOM     34  CG2 THR A   9      17.456  24.091  29.402  0.00  0.00    +0.034 C 
BRANCH  33  35
ATOM     35  OG1 THR A   9      19.241  23.240  28.213  0.00  0.00    -0.382 OA
ATOM     36  HG1 THR A   9      19.906  23.346  27.487  0.00  0.00    +0.210 HD
ENDBRANCH  33  35
ENDBRANCH  21  33
ENDBRANCH  18  21
ENDBRANCH  16  17
BRANCH  16  37
ATOM     37  CB  ASP A   8      19.512  26.608  23.536  0.00  0.00    +0.143 C 
BRANCH  37  38
ATOM     38  CG  ASP A   8      20.534  27.281  22.651  0.00  0.00    +0.367 C 
ATOM     39  OD2 ASP A   8      21.748  27.309  23.032  0.00  0.00    -0.246 OA
ATOM     40  OD1 ASP A   8      20.203  27.755  21.533  0.00  0.00    -0.246 OA
ENDBRANCH  37  38
ENDBRANCH  16  37
ENDBRANCH  14  16
ENDBRANCH  11  12
BRANCH  11  41
ATOM     41  CB  ASP A   7      21.927  24.684  20.164  0.00  0.00    +0.143 C 
BRANCH  41  42
ATOM     42  CG  ASP A   7      22.111  24.458  18.695  0.00  0.00    +0.367 C 
ATOM     43  OD2 ASP A   7      22.341  23.322  18.207  0.00  0.00    -0.246 OA
ATOM     44  OD1 ASP A   7      22.073  25.423  17.926  0.00  0.00    -0.246 OA
ENDBRANCH  41  42
ENDBRANCH  11  41
ENDBRANCH   9  11
ENDBRANCH   5   7
ENDBRANCH   2   5
BRANCH   1  45
ATOM     45  CA  GLY A   5      18.561  18.018  18.494  0.00  0.00    +0.176 C 
BRANCH  45  48
ATOM     46  C   THR A   4      20.023  16.946  20.168  0.00  0.00    +0.243 C 
ATOM     47  O   THR A   4      21.037  17.481  19.745  0.00  0.00    -0.273 OA
ATOM     48  N   GLY A   5      18.825  17.080  19.593  0.00  0.00    -0.295 N 
ATOM     49  H   GLY A   5      18.041  16.492  19.940  0.00  0.00    +0.150 HD
BRANCH  46  50
ATOM     50  CA  THR A   4      20.099  16.072  21.428  0.00  0.00    +0.176 C 
BRANCH  50  53
ATOM     51  C   ASP A   3      18.139  16.880  22.624  0.00  0.00    +0.241 C 
ATOM     52  O   ASP A   3      18.634  18.003  22.750  0.00  0.00    -0.273 OA
ATOM     53  N   THR A   4      18.769  15.880  22.004  0.00  0.00    -0.295 N 
ATOM     54  H   THR A   4      18.307  14.951  21.930  0.00  0.00    +0.150 HD
BRANCH  51  55
ATOM     55  CA  ASP A   3      16.765  16.553  23.250  0.00  0.00    +0.160 C 
BRANCH  55  57
ATOM     56  C   LEU A   2      16.341  15.206  25.268  0.00  0.00    +0.241 C 
ATOM     57  N   ASP A   3      16.880  16.293  24.695  0.00  0.00    -0.297 N 
ATOM     58  H   ASP A   3      17.395  16.973  25.290  0.00  0.00    +0.150 HD
ATOM     59  O   LEU A   2      15.958  14.242  24.604  0.00  0.00    -0.273 OA
BRANCH  56  60
ATOM     60  CA  LEU A   2      16.198  15.181  26.813  0.00  0.00    +0.149 C 
BRANCH  60  62
ATOM     61  C   LEU A   1      14.108  16.396  27.187  0.00  0.00    +0.238 C 
ATOM     62  N   LEU A   2      14.785  15.240  27.241  0.00  0.00    -0.297 N 
ATOM     63  H   LEU A   2      14.313  14.380  27.586  0.00  0.00    +0.150 HD
ATOM     64  O   LEU A   1      14.654  17.474  26.933  0.00  0.00    -0.274 OA
BRANCH  61  65
ATOM     65  CA  LEU A   1      12.599  16.337  27.403  0.00  0.00    +0.145 C 
BRANCH  65  66
ATOM     66  N   LEU A   1      12.174  17.281  28.422  0.00  0.00    -0.238 NA
ATOM     67  H   LEU A   1      11.905  18.244  28.137  0.00  0.00    +0.142 HD
ENDBRANCH  65  66
BRANCH  65  68
ATOM     68  CB  LEU A   1      11.888  16.685  26.102  0.00  0.00    +0.026 C 
BRANCH  68  69
ATOM     69  CG  LEU A   1      12.027  15.803  24.881  0.00  0.00    +0.002 C 
ATOM     70  CD2 LEU A   1      11.196  14.509  25.080  0.00  0.00    +0.000 C 
ATOM     71  CD1 LEU A   1      11.459  16.623  23.745  0.00  0.00    +0.000 C 
ENDBRANCH  68  69
ENDBRANCH  65  68
ENDBRANCH  61  65
ENDBRANCH  60  62
BRANCH  60  72
ATOM     72  CB  LEU A   2      16.863  13.935  27.399  0.00  0.00    +0.029 C 
BRANCH  72  73
ATOM     73  CG  LEU A   2      16.822  13.852  28.937  0.00  0.00    +0.002 C 
ATOM     74  CD2 LEU A   2      17.374  15.130  29.614  0.00  0.00    +0.000 C 
ATOM     75  CD1 LEU A   2      17.576  12.602  29.412  0.00  0.00    +0.000 C 
ENDBRANCH  72  73
ENDBRANCH  60  72
ENDBRANCH  56  60
ENDBRANCH  55  57
BRANCH  55  76
ATOM     76  CB  ASP A   3      15.778  17.731  23.020  0.00  0.00    +0.143 C 
BRANCH  76  77
ATOM     77  CG  ASP A   3      15.386  17.913  21.553  0.00  0.00    +0.367 C 
ATOM     78  OD2 ASP A   3      14.269  18.344  21.179  0.00  0.00    -0.246 OA
ATOM     79  OD1 ASP A   3      16.195  17.615  20.665  0.00  0.00    -0.246 OA
ENDBRANCH  76  77
ENDBRANCH  55  76
ENDBRANCH  51  55
ENDBRANCH  50  53
BRANCH  50  80
ATOM     80  CB  THR A   4      20.766  14.735  21.079  0.00  0.00    +0.137 C 
ATOM     81  CG2 THR A   4      20.924  13.865  22.333  0.00  0.00    +0.034 C 
BRANCH  80  82
ATOM     82  OG1 THR A   4      19.931  13.980  20.180  0.00  0.00    -0.382 OA
ATOM     83  HG1 THR A   4      19.790  14.499  19.349  0.00  0.00    +0.210 HD
ENDBRANCH  80  82
ENDBRANCH  50  80
ENDBRANCH  46  50
ENDBRANCH  45  48
ENDBRANCH   1  45
TORSDOF 36
REMARK  Name = ../refined-set-2016/2o4n/2o4n_pocket.pdb
REMARK  221 active torsions:
REMARK  status: ('A' for Active; 'I' for Inactive)
REMARK    1  A    between atoms: _1  and  _3
REMARK    2  A    between atoms: _3  and  _4
REMARK    3  A    between atoms: _3  and  _6
REMARK    4  A    between atoms: _6  and  _7
REMARK    5  A    between atoms: _7  and  _8
REMARK    6  A    between atoms: _8  and  _9
REMARK    7  A    between atoms: _18  and  _20
REMARK    8  A    between atoms: _20  and  _21
REMARK    9  A    between atoms: _20  and  _23
REMARK   10  A    between atoms: _23  and  _24
REMARK   11  A    between atoms: _27  and  _29
REMARK   12  A    between atoms: _29  and  _30
REMARK   13  A    between atoms: _29  and  _32
REMARK   14  A    between atoms: _32  and  _33
REMARK   15  A    between atoms: _36  and  _38
REMARK   16  A    between atoms: _38  and  _39
REMARK   17  A    between atoms: _38  and  _41
REMARK   18  A    between atoms: _41  and  _42
REMARK   19  A    between atoms: _45  and  _47
REMARK   20  A    between atoms: _47  and  _48
REMARK   21  A    between atoms: _47  and  _50
REMARK   22  A    between atoms: _50  and  _51
REMARK   23  A    between atoms: _54  and  _56
REMARK   24  A    between atoms: _56  and  _57
REMARK   25  A    between atoms: _56  and  _59
REMARK   26  A    between atoms: _59  and  _60
REMARK   27  A    between atoms: _63  and  _65
REMARK   28  A    between atoms: _65  and  _66
REMARK   29  A    between atoms: _68  and  _70
REMARK   30  A    between atoms: _70  and  _71
REMARK   31  A    between atoms: _74  and  _76
REMARK   32  A    between atoms: _76  and  _77
REMARK   33  A    between atoms: _76  and  _79
REMARK   34  A    between atoms: _79  and  _80
REMARK   35  A    between atoms: _83  and  _85
REMARK   36  A    between atoms: _85  and  _86
REMARK   37  A    between atoms: _85  and  _88
REMARK   38  A    between atoms: _88  and  _89
REMARK   39  A    between atoms: _92  and  _94
REMARK   40  A    between atoms: _94  and  _95
REMARK   41  A    between atoms: _94  and  _97
REMARK   42  A    between atoms: _97  and  _98
REMARK   43  A    between atoms: _101  and  _103
REMARK   44  A    between atoms: _103  and  _104
REMARK   45  A    between atoms: _103  and  _106
REMARK   46  A    between atoms: _106  and  _107
REMARK   47  A    between atoms: _110  and  _112
REMARK   48  A    between atoms: _112  and  _113
REMARK   49  A    between atoms: _112  and  _115
REMARK   50  A    between atoms: _115  and  _116
REMARK   51  A    between atoms: _119  and  _121
REMARK   52  A    between atoms: _121  and  _122
REMARK   53  A    between atoms: _121  and  _124
REMARK   54  A    between atoms: _124  and  _125
REMARK   55  A    between atoms: _125  and  _126
REMARK   56  A    between atoms: _128  and  _130
REMARK   57  A    between atoms: _130  and  _131
REMARK   58  A    between atoms: _130  and  _133
REMARK   59  A    between atoms: _133  and  _134
REMARK   60  A    between atoms: _137  and  _139
REMARK   61  A    between atoms: _139  and  _140
REMARK   62  A    between atoms: _142  and  _144
REMARK   63  A    between atoms: _144  and  _145
REMARK   64  A    between atoms: _147  and  _149
REMARK   65  A    between atoms: _149  and  _150
REMARK   66  A    between atoms: _149  and  _152
REMARK   67  A    between atoms: _152  and  _153
REMARK   68  A    between atoms: _156  and  _158
REMARK   69  A    between atoms: _158  and  _159
REMARK   70  A    between atoms: _161  and  _163
REMARK   71  A    between atoms: _163  and  _164
REMARK   72  A    between atoms: _166  and  _168
REMARK   73  A    between atoms: _168  and  _169
REMARK   74  A    between atoms: _168  and  _171
REMARK   75  A    between atoms: _171  and  _172
REMARK   76  A    between atoms: _178  and  _180
REMARK   77  A    between atoms: _180  and  _181
REMARK   78  A    between atoms: _180  and  _183
REMARK   79  A    between atoms: _183  and  _184
REMARK   80  A    between atoms: _187  and  _189
REMARK   81  A    between atoms: _189  and  _190
REMARK   82  A    between atoms: _189  and  _192
REMARK   83  A    between atoms: _195  and  _197
REMARK   84  A    between atoms: _197  and  _198
REMARK   85  A    between atoms: _197  and  _200
REMARK   86  A    between atoms: _200  and  _201
REMARK   87  A    between atoms: _204  and  _206
REMARK   88  A    between atoms: _206  and  _207
REMARK   89  A    between atoms: _206  and  _209
REMARK   90  A    between atoms: _209  and  _210
REMARK   91  A    between atoms: _214  and  _215
REMARK   92  A    between atoms: _220  and  _222
REMARK   93  A    between atoms: _222  and  _223
REMARK   94  A    between atoms: _222  and  _225
REMARK   95  A    between atoms: _225  and  _226
REMARK   96  A    between atoms: _229  and  _231
REMARK   97  A    between atoms: _231  and  _232
REMARK   98  A    between atoms: _231  and  _234
REMARK   99  A    between atoms: _234  and  _235
REMARK  100  A    between atoms: _240  and  _242
REMARK  101  A    between atoms: _242  and  _243
REMARK  102  A    between atoms: _242  and  _245
REMARK  103  A    between atoms: _248  and  _250
REMARK  104  A    between atoms: _250  and  _251
REMARK  105  A    between atoms: _250  and  _253
REMARK  106  A    between atoms: _253  and  _254
REMARK  107  A    between atoms: _257  and  _259
REMARK  108  A    between atoms: _259  and  _260
REMARK  109  A    between atoms: _262  and  _264
REMARK  110  A    between atoms: _264  and  _265
REMARK  111  A    between atoms: _264  and  _267
REMARK  112  A    between atoms: _267  and  _268
REMARK  113  A    between atoms: _268  and  _269
REMARK  114  A    between atoms: _269  and  _270
REMARK  115  A    between atoms: _279  and  _281
REMARK  116  A    between atoms: _281  and  _282
REMARK  117  A    between atoms: _281  and  _284
REMARK  118  A    between atoms: _284  and  _285
REMARK  119  A    between atoms: _290  and  _292
REMARK  120  A    between atoms: _292  and  _293
REMARK  121  A    between atoms: _292  and  _295
REMARK  122  A    between atoms: _295  and  _296
REMARK  123  A    between atoms: _296  and  _297
REMARK  124  A    between atoms: _297  and  _298
REMARK  125  A    between atoms: _308  and  _309
REMARK  126  A    between atoms: _314  and  _316
REMARK  127  A    between atoms: _316  and  _317
REMARK  128  A    between atoms: _316  and  _319
REMARK  129  A    between atoms: _319  and  _320
REMARK  130  A    between atoms: _323  and  _325
REMARK  131  A    between atoms: _325  and  _326
REMARK  132  A    between atoms: _325  and  _328
REMARK  133  A    between atoms: _328  and  _329
REMARK  134  A    between atoms: _332  and  _334
REMARK  135  A    between atoms: _334  and  _335
REMARK  136  A    between atoms: _334  and  _337
REMARK  137  A    between atoms: _337  and  _338
REMARK  138  A    between atoms: _341  and  _343
REMARK  139  A    between atoms: _343  and  _344
REMARK  140  A    between atoms: _343  and  _346
REMARK  141  A    between atoms: _346  and  _347
REMARK  142  A    between atoms: _350  and  _352
REMARK  143  A    between atoms: _352  and  _353
REMARK  144  A    between atoms: _352  and  _355
REMARK  145  A    between atoms: _355  and  _356
REMARK  146  A    between atoms: _359  and  _361
REMARK  147  A    between atoms: _361  and  _362
REMARK  148  A    between atoms: _364  and  _366
REMARK  149  A    between atoms: _366  and  _367
REMARK  150  A    between atoms: _370  and  _372
REMARK  151  A    between atoms: _372  and  _373
REMARK  152  A    between atoms: _372  and  _375
REMARK  153  A    between atoms: _375  and  _376
REMARK  154  A    between atoms: _379  and  _381
REMARK  155  A    between atoms: _381  and  _382
REMARK  156  A    between atoms: _381  and  _384
REMARK  157  A    between atoms: _384  and  _385
REMARK  158  A    between atoms: _388  and  _390
REMARK  159  A    between atoms: _390  and  _391
REMARK  160  A    between atoms: _390  and  _393
REMARK  161  A    between atoms: _393  and  _394
REMARK  162  A    between atoms: _397  and  _399
REMARK  163  A    between atoms: _399  and  _400
REMARK  164  A    between atoms: _399  and  _402
REMARK  165  A    between atoms: _402  and  _403
REMARK  166  A    between atoms: _406  and  _408
REMARK  167  A    between atoms: _408  and  _409
REMARK  168  A    between atoms: _408  and  _411
REMARK  169  A    between atoms: _411  and  _412
REMARK  170  A    between atoms: _415  and  _417
REMARK  171  A    between atoms: _417  and  _418
REMARK  172  A    between atoms: _420  and  _422
REMARK  173  A    between atoms: _422  and  _423
REMARK  174  A    between atoms: _425  and  _427
REMARK  175  A    between atoms: _427  and  _428
REMARK  176  A    between atoms: _427  and  _430
REMARK  177  A    between atoms: _430  and  _431
REMARK  178  A    between atoms: _434  and  _436
REMARK  179  A    between atoms: _436  and  _437
REMARK  180  A    between atoms: _439  and  _441
REMARK  181  A    between atoms: _441  and  _442
REMARK  182  A    between atoms: _444  and  _446
REMARK  183  A    between atoms: _446  and  _447
REMARK  184  A    between atoms: _446  and  _449
REMARK  185  A    between atoms: _449  and  _450
REMARK  186  A    between atoms: _456  and  _458
REMARK  187  A    between atoms: _458  and  _459
REMARK  188  A    between atoms: _458  and  _461
REMARK  189  A    between atoms: _461  and  _462
REMARK  190  A    between atoms: _465  and  _467
REMARK  191  A    between atoms: _467  and  _468
REMARK  192  A    between atoms: _467  and  _470
REMARK  193  A    between atoms: _470  and  _471
REMARK  194  A    between atoms: _474  and  _476
REMARK  195  A    between atoms: _476  and  _477
REMARK  196  A    between atoms: _476  and  _479
REMARK  197  A    between atoms: _479  and  _480
REMARK  198  A    between atoms: _484  and  _485
REMARK  199  A    between atoms: _490  and  _492
REMARK  200  A    between atoms: _492  and  _493
REMARK  201  A    between atoms: _492  and  _495
REMARK  202  A    between atoms: _495  and  _496
REMARK  203  A    between atoms: _499  and  _501
REMARK  204  A    between atoms: _501  and  _502
REMARK  205  A    between atoms: _501  and  _504
REMARK  206  A    between atoms: _504  and  _505
REMARK  207  A    between atoms: _510  and  _512
REMARK  208  A    between atoms: _512  and  _513
REMARK  209  A    between atoms: _512  and  _515
REMARK  210  A    between atoms: _518  and  _520
REMARK  211  A    between atoms: _520  and  _521
REMARK  212  A    between atoms: _520  and  _523
REMARK  213  A    between atoms: _523  and  _524
REMARK  214  A    between atoms: _527  and  _529
REMARK  215  A    between atoms: _529  and  _530
REMARK  216  A    between atoms: _532  and  _534
REMARK  217  A    between atoms: _534  and  _535
REMARK  218  A    between atoms: _534  and  _537
REMARK  219  A    between atoms: _537  and  _538
REMARK  220  A    between atoms: _538  and  _539
REMARK  221  A    between atoms: _539  and  _540
REMARK                            x       y       z     vdW  Elec       q    Type
REMARK                         _______ _______ _______ _____ _____    ______ ____
ROOT
ATOM      1  C   ILE A   4       9.903  23.443  12.677  0.00  0.00    +0.241 C 
ATOM      2  N   GLY A   5       9.227  24.184  13.556  0.00  0.00    -0.295 N 
ATOM      3  H   GLY A   5       9.528  24.204  14.551  0.00  0.00    +0.150 HD
ATOM      4  O   ILE A   4       9.631  23.397  11.467  0.00  0.00    -0.273 OA
ENDROOT
BRANCH   2   5
ATOM      5  CA  GLY A   5       8.069  24.967  13.136  0.00  0.00    +0.176 C 
BRANCH   5   6
ATOM      6  C   GLY A   5       8.339  26.391  12.720  0.00  0.00    +0.243 C 
ATOM      7  N   GLY A   6       9.540  26.874  13.013  0.00  0.00    -0.295 N 
ATOM      8  H   GLY A   6      10.230  26.260  13.492  0.00  0.00    +0.150 HD
ATOM      9  O   GLY A   5       7.470  27.060  12.131  0.00  0.00    -0.273 OA
BRANCH   7  10
ATOM     10  CA  GLY A   6       9.920  28.250  12.679  0.00  0.00    +0.176 C 
BRANCH  10  11
ATOM     11  C   GLY A   6      10.660  28.894  13.840  0.00  0.00    +0.243 C 
ATOM     12  O   GLY A   6      11.134  28.207  14.733  0.00  0.00    -0.273 OA
ATOM     13  N   PHE A   7      10.709  30.215  13.847  0.00  0.00    -0.297 N 
ATOM     14  H   PHE A   7      10.186  30.744  13.121  0.00  0.00    +0.150 HD
BRANCH  13  15
ATOM     15  CA  PHE A   7      11.479  30.952  14.848  0.00  0.00    +0.153 C 
BRANCH  15  16
ATOM     16  C   PHE A   7      10.636  31.526  15.986  0.00  0.00    +0.241 C 
ATOM     17  N   ILE A   8      11.179  31.511  17.207  0.00  0.00    -0.298 N 
ATOM     18  H   ILE A   8      12.087  31.025  17.350  0.00  0.00    +0.150 HD
ATOM     19  O   PHE A   7       9.521  31.980  15.756  0.00  0.00    -0.273 OA
BRANCH  17  20
ATOM     20  CA  ILE A   8      10.531  32.159  18.348  0.00  0.00    +0.137 C 
BRANCH  20  21
ATOM     21  C   ILE A   8      11.520  33.097  19.086  0.00  0.00    +0.227 C 
ATOM     22  O   ILE A   8      12.736  32.894  19.023  0.00  0.00    -0.286 OA
ENDBRANCH  20  21
BRANCH  20  23
ATOM     23  CB  ILE A   8       9.898  31.129  19.314  0.00  0.00    +0.026 C 
ATOM     24  CG2 ILE A   8       8.742  30.355  18.630  0.00  0.00    +0.002 C 
BRANCH  23  25
ATOM     25  CG1 ILE A   8      10.955  30.139  19.837  0.00  0.00    +0.002 C 
ATOM     26  CD1 ILE A   8      10.594  29.450  21.118  0.00  0.00    +0.000 C 
ENDBRANCH  23  25
ENDBRANCH  20  23
ENDBRANCH  17  20
ENDBRANCH  15  16
BRANCH  15  27
ATOM     27  CB  PHE A   7      12.256  32.076  14.173  0.00  0.00    +0.055 C 
BRANCH  27  28
ATOM     28  CG  PHE A   7      13.214  31.599  13.141  0.00  0.00    -0.020 A 
ATOM     29  CD2 PHE A   7      14.528  31.294  13.491  0.00  0.00    -0.004 A 
ATOM     30  CE2 PHE A   7      15.425  30.839  12.550  0.00  0.00    -0.000 A 
ATOM     31  CZ  PHE A   7      15.027  30.669  11.219  0.00  0.00    -0.000 A 
ATOM     32  CE1 PHE A   7      13.709  30.962  10.842  0.00  0.00    -0.000 A 
ATOM     33  CD1 PHE A   7      12.806  31.435  11.817  0.00  0.00    -0.004 A 
ENDBRANCH  27  28
ENDBRANCH  15  27
ENDBRANCH  13  15
ENDBRANCH  10  11
ENDBRANCH   7  10
ENDBRANCH   5   6
ENDBRANCH   2   5
BRANCH   1  34
ATOM     34  CA  ILE A   4      11.118  22.661  13.209  0.00  0.00    +0.149 C 
BRANCH  34  36
ATOM     35  C   GLY A   3      12.170  24.377  14.489  0.00  0.00    +0.243 C 
ATOM     36  N   ILE A   4      11.589  23.183  14.489  0.00  0.00    -0.297 N 
ATOM     37  H   ILE A   4      11.474  22.640  15.368  0.00  0.00    +0.150 HD
ATOM     38  O   GLY A   3      12.313  25.029  13.447  0.00  0.00    -0.273 OA
BRANCH  35  39
ATOM     39  CA  GLY A   3      12.641  24.948  15.809  0.00  0.00    +0.176 C 
BRANCH  39  42
ATOM     40  C   GLY A   2      14.346  26.731  15.829  0.00  0.00    +0.243 C 
ATOM     41  O   GLY A   2      15.119  26.075  16.533  0.00  0.00    -0.273 OA
ATOM     42  N   GLY A   3      13.132  26.302  15.497  0.00  0.00    -0.295 N 
ATOM     43  H   GLY A   3      12.498  26.954  14.992  0.00  0.00    +0.150 HD
BRANCH  40  44
ATOM     44  CA  GLY A   2      14.733  28.123  15.332  0.00  0.00    +0.176 C 
BRANCH  44  47
ATOM     45  C   ILE A   1      15.065  29.830  17.076  0.00  0.00    +0.238 C 
ATOM     46  O   ILE A   1      13.892  30.255  16.988  0.00  0.00    -0.274 OA
ATOM     47  N   GLY A   2      15.565  28.861  16.300  0.00  0.00    -0.296 N 
ATOM     48  H   GLY A   2      16.573  28.621  16.382  0.00  0.00    +0.150 HD
BRANCH  45  49
ATOM     49  CA  ILE A   1      16.030  30.455  18.081  0.00  0.00    +0.145 C 
BRANCH  49  50
ATOM     50  N   ILE A   1      15.619  31.846  18.323  0.00  0.00    -0.238 NA
ATOM     51  H   ILE A   1      14.616  32.033  18.523  0.00  0.00    +0.142 HD
ENDBRANCH  49  50
BRANCH  49  52
ATOM     52  CB  ILE A   1      16.028  29.607  19.397  0.00  0.00    +0.025 C 
ATOM     53  CG2 ILE A   1      16.992  30.170  20.450  0.00  0.00    +0.002 C 
BRANCH  52  54
ATOM     54  CG1 ILE A   1      14.605  29.452  19.962  0.00  0.00    +0.002 C 
ATOM     55  CD1 ILE A   1      14.455  28.284  20.957  0.00  0.00    +0.000 C 
ENDBRANCH  52  54
ENDBRANCH  49  52
ENDBRANCH  45  49
ENDBRANCH  44  47
ENDBRANCH  40  44
ENDBRANCH  39  42
ENDBRANCH  35  39
ENDBRANCH  34  36
BRANCH  34  56
ATOM     56  CB  ILE A   4      10.868  21.106  13.214  0.00  0.00    +0.027 C 
ATOM     57  CG2 ILE A   4      12.196  20.332  13.420  0.00  0.00    +0.002 C 
BRANCH  56  58
ATOM     58  CG1 ILE A   4       9.765  20.734  14.201  0.00  0.00    +0.002 C 
ATOM     59  CD1 ILE A   4       8.403  20.779  13.611  0.00  0.00    +0.000 C 
ENDBRANCH  56  58
ENDBRANCH  34  56
ENDBRANCH   1  34
TORSDOF 24
REMARK  Name = ../refined-set-2016/2o4n/2o4n_pocket.pdb
REMARK  221 active torsions:
REMARK  status: ('A' for Active; 'I' for Inactive)
REMARK    1  A    between atoms: _1  and  _3
REMARK    2  A    between atoms: _3  and  _4
REMARK    3  A    between atoms: _3  and  _6
REMARK    4  A    between atoms: _6  and  _7
REMARK    5  A    between atoms: _7  and  _8
REMARK    6  A    between atoms: _8  and  _9
REMARK    7  A    between atoms: _18  and  _20
REMARK    8  A    between atoms: _20  and  _21
REMARK    9  A    between atoms: _20  and  _23
REMARK   10  A    between atoms: _23  and  _24
REMARK   11  A    between atoms: _27  and  _29
REMARK   12  A    between atoms: _29  and  _30
REMARK   13  A    between atoms: _29  and  _32
REMARK   14  A    between atoms: _32  and  _33
REMARK   15  A    between atoms: _36  and  _38
REMARK   16  A    between atoms: _38  and  _39
REMARK   17  A    between atoms: _38  and  _41
REMARK   18  A    between atoms: _41  and  _42
REMARK   19  A    between atoms: _45  and  _47
REMARK   20  A    between atoms: _47  and  _48
REMARK   21  A    between atoms: _47  and  _50
REMARK   22  A    between atoms: _50  and  _51
REMARK   23  A    between atoms: _54  and  _56
REMARK   24  A    between atoms: _56  and  _57
REMARK   25  A    between atoms: _56  and  _59
REMARK   26  A    between atoms: _59  and  _60
REMARK   27  A    between atoms: _63  and  _65
REMARK   28  A    between atoms: _65  and  _66
REMARK   29  A    between atoms: _68  and  _70
REMARK   30  A    between atoms: _70  and  _71
REMARK   31  A    between atoms: _74  and  _76
REMARK   32  A    between atoms: _76  and  _77
REMARK   33  A    between atoms: _76  and  _79
REMARK   34  A    between atoms: _79  and  _80
REMARK   35  A    between atoms: _83  and  _85
REMARK   36  A    between atoms: _85  and  _86
REMARK   37  A    between atoms: _85  and  _88
REMARK   38  A    between atoms: _88  and  _89
REMARK   39  A    between atoms: _92  and  _94
REMARK   40  A    between atoms: _94  and  _95
REMARK   41  A    between atoms: _94  and  _97
REMARK   42  A    between atoms: _97  and  _98
REMARK   43  A    between atoms: _101  and  _103
REMARK   44  A    between atoms: _103  and  _104
REMARK   45  A    between atoms: _103  and  _106
REMARK   46  A    between atoms: _106  and  _107
REMARK   47  A    between atoms: _110  and  _112
REMARK   48  A    between atoms: _112  and  _113
REMARK   49  A    between atoms: _112  and  _115
REMARK   50  A    between atoms: _115  and  _116
REMARK   51  A    between atoms: _119  and  _121
REMARK   52  A    between atoms: _121  and  _122
REMARK   53  A    between atoms: _121  and  _124
REMARK   54  A    between atoms: _124  and  _125
REMARK   55  A    between atoms: _125  and  _126
REMARK   56  A    between atoms: _128  and  _130
REMARK   57  A    between atoms: _130  and  _131
REMARK   58  A    between atoms: _130  and  _133
REMARK   59  A    between atoms: _133  and  _134
REMARK   60  A    between atoms: _137  and  _139
REMARK   61  A    between atoms: _139  and  _140
REMARK   62  A    between atoms: _142  and  _144
REMARK   63  A    between atoms: _144  and  _145
REMARK   64  A    between atoms: _147  and  _149
REMARK   65  A    between atoms: _149  and  _150
REMARK   66  A    between atoms: _149  and  _152
REMARK   67  A    between atoms: _152  and  _153
REMARK   68  A    between atoms: _156  and  _158
REMARK   69  A    between atoms: _158  and  _159
REMARK   70  A    between atoms: _161  and  _163
REMARK   71  A    between atoms: _163  and  _164
REMARK   72  A    between atoms: _166  and  _168
REMARK   73  A    between atoms: _168  and  _169
REMARK   74  A    between atoms: _168  and  _171
REMARK   75  A    between atoms: _171  and  _172
REMARK   76  A    between atoms: _178  and  _180
REMARK   77  A    between atoms: _180  and  _181
REMARK   78  A    between atoms: _180  and  _183
REMARK   79  A    between atoms: _183  and  _184
REMARK   80  A    between atoms: _187  and  _189
REMARK   81  A    between atoms: _189  and  _190
REMARK   82  A    between atoms: _189  and  _192
REMARK   83  A    between atoms: _195  and  _197
REMARK   84  A    between atoms: _197  and  _198
REMARK   85  A    between atoms: _197  and  _200
REMARK   86  A    between atoms: _200  and  _201
REMARK   87  A    between atoms: _204  and  _206
REMARK   88  A    between atoms: _206  and  _207
REMARK   89  A    between atoms: _206  and  _209
REMARK   90  A    between atoms: _209  and  _210
REMARK   91  A    between atoms: _214  and  _215
REMARK   92  A    between atoms: _220  and  _222
REMARK   93  A    between atoms: _222  and  _223
REMARK   94  A    between atoms: _222  and  _225
REMARK   95  A    between atoms: _225  and  _226
REMARK   96  A    between atoms: _229  and  _231
REMARK   97  A    between atoms: _231  and  _232
REMARK   98  A    between atoms: _231  and  _234
REMARK   99  A    between atoms: _234  and  _235
REMARK  100  A    between atoms: _240  and  _242
REMARK  101  A    between atoms: _242  and  _243
REMARK  102  A    between atoms: _242  and  _245
REMARK  103  A    between atoms: _248  and  _250
REMARK  104  A    between atoms: _250  and  _251
REMARK  105  A    between atoms: _250  and  _253
REMARK  106  A    between atoms: _253  and  _254
REMARK  107  A    between atoms: _257  and  _259
REMARK  108  A    between atoms: _259  and  _260
REMARK  109  A    between atoms: _262  and  _264
REMARK  110  A    between atoms: _264  and  _265
REMARK  111  A    between atoms: _264  and  _267
REMARK  112  A    between atoms: _267  and  _268
REMARK  113  A    between atoms: _268  and  _269
REMARK  114  A    between atoms: _269  and  _270
REMARK  115  A    between atoms: _279  and  _281
REMARK  116  A    between atoms: _281  and  _282
REMARK  117  A    between atoms: _281  and  _284
REMARK  118  A    between atoms: _284  and  _285
REMARK  119  A    between atoms: _290  and  _292
REMARK  120  A    between atoms: _292  and  _293
REMARK  121  A    between atoms: _292  and  _295
REMARK  122  A    between atoms: _295  and  _296
REMARK  123  A    between atoms: _296  and  _297
REMARK  124  A    between atoms: _297  and  _298
REMARK  125  A    between atoms: _308  and  _309
REMARK  126  A    between atoms: _314  and  _316
REMARK  127  A    between atoms: _316  and  _317
REMARK  128  A    between atoms: _316  and  _319
REMARK  129  A    between atoms: _319  and  _320
REMARK  130  A    between atoms: _323  and  _325
REMARK  131  A    between atoms: _325  and  _326
REMARK  132  A    between atoms: _325  and  _328
REMARK  133  A    between atoms: _328  and  _329
REMARK  134  A    between atoms: _332  and  _334
REMARK  135  A    between atoms: _334  and  _335
REMARK  136  A    between atoms: _334  and  _337
REMARK  137  A    between atoms: _337  and  _338
REMARK  138  A    between atoms: _341  and  _343
REMARK  139  A    between atoms: _343  and  _344
REMARK  140  A    between atoms: _343  and  _346
REMARK  141  A    between atoms: _346  and  _347
REMARK  142  A    between atoms: _350  and  _352
REMARK  143  A    between atoms: _352  and  _353
REMARK  144  A    between atoms: _352  and  _355
REMARK  145  A    between atoms: _355  and  _356
REMARK  146  A    between atoms: _359  and  _361
REMARK  147  A    between atoms: _361  and  _362
REMARK  148  A    between atoms: _364  and  _366
REMARK  149  A    between atoms: _366  and  _367
REMARK  150  A    between atoms: _370  and  _372
REMARK  151  A    between atoms: _372  and  _373
REMARK  152  A    between atoms: _372  and  _375
REMARK  153  A    between atoms: _375  and  _376
REMARK  154  A    between atoms: _379  and  _381
REMARK  155  A    between atoms: _381  and  _382
REMARK  156  A    between atoms: _381  and  _384
REMARK  157  A    between atoms: _384  and  _385
REMARK  158  A    between atoms: _388  and  _390
REMARK  159  A    between atoms: _390  and  _391
REMARK  160  A    between atoms: _390  and  _393
REMARK  161  A    between atoms: _393  and  _394
REMARK  162  A    between atoms: _397  and  _399
REMARK  163  A    between atoms: _399  and  _400
REMARK  164  A    between atoms: _399  and  _402
REMARK  165  A    between atoms: _402  and  _403
REMARK  166  A    between atoms: _406  and  _408
REMARK  167  A    between atoms: _408  and  _409
REMARK  168  A    between atoms: _408  and  _411
REMARK  169  A    between atoms: _411  and  _412
REMARK  170  A    between atoms: _415  and  _417
REMARK  171  A    between atoms: _417  and  _418
REMARK  172  A    between atoms: _420  and  _422
REMARK  173  A    between atoms: _422  and  _423
REMARK  174  A    between atoms: _425  and  _427
REMARK  175  A    between atoms: _427  and  _428
REMARK  176  A    between atoms: _427  and  _430
REMARK  177  A    between atoms: _430  and  _431
REMARK  178  A    between atoms: _434  and  _436
REMARK  179  A    between atoms: _436  and  _437
REMARK  180  A    between atoms: _439  and  _441
REMARK  181  A    between atoms: _441  and  _442
REMARK  182  A    between atoms: _444  and  _446
REMARK  183  A    between atoms: _446  and  _447
REMARK  184  A    between atoms: _446  and  _449
REMARK  185  A    between atoms: _449  and  _450
REMARK  186  A    between atoms: _456  and  _458
REMARK  187  A    between atoms: _458  and  _459
REMARK  188  A    between atoms: _458  and  _461
REMARK  189  A    between atoms: _461  and  _462
REMARK  190  A    between atoms: _465  and  _467
REMARK  191  A    between atoms: _467  and  _468
REMARK  192  A    between atoms: _467  and  _470
REMARK  193  A    between atoms: _470  and  _471
REMARK  194  A    between atoms: _474  and  _476
REMARK  195  A    between atoms: _476  and  _477
REMARK  196  A    between atoms: _476  and  _479
REMARK  197  A    between atoms: _479  and  _480
REMARK  198  A    between atoms: _484  and  _485
REMARK  199  A    between atoms: _490  and  _492
REMARK  200  A    between atoms: _492  and  _493
REMARK  201  A    between atoms: _492  and  _495
REMARK  202  A    between atoms: _495  and  _496
REMARK  203  A    between atoms: _499  and  _501
REMARK  204  A    between atoms: _501  and  _502
REMARK  205  A    between atoms: _501  and  _504
REMARK  206  A    between atoms: _504  and  _505
REMARK  207  A    between atoms: _510  and  _512
REMARK  208  A    between atoms: _512  and  _513
REMARK  209  A    between atoms: _512  and  _515
REMARK  210  A    between atoms: _518  and  _520
REMARK  211  A    between atoms: _520  and  _521
REMARK  212  A    between atoms: _520  and  _523
REMARK  213  A    between atoms: _523  and  _524
REMARK  214  A    between atoms: _527  and  _529
REMARK  215  A    between atoms: _529  and  _530
REMARK  216  A    between atoms: _532  and  _534
REMARK  217  A    between atoms: _534  and  _535
REMARK  218  A    between atoms: _534  and  _537
REMARK  219  A    between atoms: _537  and  _538
REMARK  220  A    between atoms: _538  and  _539
REMARK  221  A    between atoms: _539  and  _540
REMARK                            x       y       z     vdW  Elec       q    Type
REMARK                         _______ _______ _______ _____ _____    ______ ____
ROOT
ATOM      1  CA  LEU A   1      15.925  30.247  27.774  0.00  0.00    +0.133 C 
ENDROOT
BRANCH   1   2
ATOM      2  N   LEU A   1      16.784  29.357  28.529  0.00  0.00    -0.239 NA
ATOM      3  H   LEU A   1      16.914  28.382  28.191  0.00  0.00    +0.142 HD
ENDBRANCH   1   2
BRANCH   1   4
ATOM      4  C   LEU A   1      14.488  30.039  28.214  0.00  0.00    +0.224 C 
ATOM      5  O   LEU A   1      14.102  28.923  28.595  0.00  0.00    -0.287 OA
ENDBRANCH   1   4
BRANCH   1   6
ATOM      6  CB  LEU A   1      16.049  29.940  26.280  0.00  0.00    +0.025 C 
BRANCH   6   7
ATOM      7  CG  LEU A   1      17.445  29.838  25.688  0.00  0.00    +0.002 C 
ATOM      8  CD2 LEU A   1      18.169  31.159  25.875  0.00  0.00    +0.000 C 
ATOM      9  CD1 LEU A   1      17.378  29.435  24.181  0.00  0.00    +0.000 C 
ENDBRANCH   6   7
ENDBRANCH   1   6
TORSDOF 4
REMARK  Name = ../refined-set-2016/2o4n/2o4n_pocket.pdb
REMARK  221 active torsions:
REMARK  status: ('A' for Active; 'I' for Inactive)
REMARK    1  A    between atoms: _1  and  _3
REMARK    2  A    between atoms: _3  and  _4
REMARK    3  A    between atoms: _3  and  _6
REMARK    4  A    between atoms: _6  and  _7
REMARK    5  A    between atoms: _7  and  _8
REMARK    6  A    between atoms: _8  and  _9
REMARK    7  A    between atoms: _18  and  _20
REMARK    8  A    between atoms: _20  and  _21
REMARK    9  A    between atoms: _20  and  _23
REMARK   10  A    between atoms: _23  and  _24
REMARK   11  A    between atoms: _27  and  _29
REMARK   12  A    between atoms: _29  and  _30
REMARK   13  A    between atoms: _29  and  _32
REMARK   14  A    between atoms: _32  and  _33
REMARK   15  A    between atoms: _36  and  _38
REMARK   16  A    between atoms: _38  and  _39
REMARK   17  A    between atoms: _38  and  _41
REMARK   18  A    between atoms: _41  and  _42
REMARK   19  A    between atoms: _45  and  _47
REMARK   20  A    between atoms: _47  and  _48
REMARK   21  A    between atoms: _47  and  _50
REMARK   22  A    between atoms: _50  and  _51
REMARK   23  A    between atoms: _54  and  _56
REMARK   24  A    between atoms: _56  and  _57
REMARK   25  A    between atoms: _56  and  _59
REMARK   26  A    between atoms: _59  and  _60
REMARK   27  A    between atoms: _63  and  _65
REMARK   28  A    between atoms: _65  and  _66
REMARK   29  A    between atoms: _68  and  _70
REMARK   30  A    between atoms: _70  and  _71
REMARK   31  A    between atoms: _74  and  _76
REMARK   32  A    between atoms: _76  and  _77
REMARK   33  A    between atoms: _76  and  _79
REMARK   34  A    between atoms: _79  and  _80
REMARK   35  A    between atoms: _83  and  _85
REMARK   36  A    between atoms: _85  and  _86
REMARK   37  A    between atoms: _85  and  _88
REMARK   38  A    between atoms: _88  and  _89
REMARK   39  A    between atoms: _92  and  _94
REMARK   40  A    between atoms: _94  and  _95
REMARK   41  A    between atoms: _94  and  _97
REMARK   42  A    between atoms: _97  and  _98
REMARK   43  A    between atoms: _101  and  _103
REMARK   44  A    between atoms: _103  and  _104
REMARK   45  A    between atoms: _103  and  _106
REMARK   46  A    between atoms: _106  and  _107
REMARK   47  A    between atoms: _110  and  _112
REMARK   48  A    between atoms: _112  and  _113
REMARK   49  A    between atoms: _112  and  _115
REMARK   50  A    between atoms: _115  and  _116
REMARK   51  A    between atoms: _119  and  _121
REMARK   52  A    between atoms: _121  and  _122
REMARK   53  A    between atoms: _121  and  _124
REMARK   54  A    between atoms: _124  and  _125
REMARK   55  A    between atoms: _125  and  _126
REMARK   56  A    between atoms: _128  and  _130
REMARK   57  A    between atoms: _130  and  _131
REMARK   58  A    between atoms: _130  and  _133
REMARK   59  A    between atoms: _133  and  _134
REMARK   60  A    between atoms: _137  and  _139
REMARK   61  A    between atoms: _139  and  _140
REMARK   62  A    between atoms: _142  and  _144
REMARK   63  A    between atoms: _144  and  _145
REMARK   64  A    between atoms: _147  and  _149
REMARK   65  A    between atoms: _149  and  _150
REMARK   66  A    between atoms: _149  and  _152
REMARK   67  A    between atoms: _152  and  _153
REMARK   68  A    between atoms: _156  and  _158
REMARK   69  A    between atoms: _158  and  _159
REMARK   70  A    between atoms: _161  and  _163
REMARK   71  A    between atoms: _163  and  _164
REMARK   72  A    between atoms: _166  and  _168
REMARK   73  A    between atoms: _168  and  _169
REMARK   74  A    between atoms: _168  and  _171
REMARK   75  A    between atoms: _171  and  _172
REMARK   76  A    between atoms: _178  and  _180
REMARK   77  A    between atoms: _180  and  _181
REMARK   78  A    between atoms: _180  and  _183
REMARK   79  A    between atoms: _183  and  _184
REMARK   80  A    between atoms: _187  and  _189
REMARK   81  A    between atoms: _189  and  _190
REMARK   82  A    between atoms: _189  and  _192
REMARK   83  A    between atoms: _195  and  _197
REMARK   84  A    between atoms: _197  and  _198
REMARK   85  A    between atoms: _197  and  _200
REMARK   86  A    between atoms: _200  and  _201
REMARK   87  A    between atoms: _204  and  _206
REMARK   88  A    between atoms: _206  and  _207
REMARK   89  A    between atoms: _206  and  _209
REMARK   90  A    between atoms: _209  and  _210
REMARK   91  A    between atoms: _214  and  _215
REMARK   92  A    between atoms: _220  and  _222
REMARK   93  A    between atoms: _222  and  _223
REMARK   94  A    between atoms: _222  and  _225
REMARK   95  A    between atoms: _225  and  _226
REMARK   96  A    between atoms: _229  and  _231
REMARK   97  A    between atoms: _231  and  _232
REMARK   98  A    between atoms: _231  and  _234
REMARK   99  A    between atoms: _234  and  _235
REMARK  100  A    between atoms: _240  and  _242
REMARK  101  A    between atoms: _242  and  _243
REMARK  102  A    between atoms: _242  and  _245
REMARK  103  A    between atoms: _248  and  _250
REMARK  104  A    between atoms: _250  and  _251
REMARK  105  A    between atoms: _250  and  _253
REMARK  106  A    between atoms: _253  and  _254
REMARK  107  A    between atoms: _257  and  _259
REMARK  108  A    between atoms: _259  and  _260
REMARK  109  A    between atoms: _262  and  _264
REMARK  110  A    between atoms: _264  and  _265
REMARK  111  A    between atoms: _264  and  _267
REMARK  112  A    between atoms: _267  and  _268
REMARK  113  A    between atoms: _268  and  _269
REMARK  114  A    between atoms: _269  and  _270
REMARK  115  A    between atoms: _279  and  _281
REMARK  116  A    between atoms: _281  and  _282
REMARK  117  A    between atoms: _281  and  _284
REMARK  118  A    between atoms: _284  and  _285
REMARK  119  A    between atoms: _290  and  _292
REMARK  120  A    between atoms: _292  and  _293
REMARK  121  A    between atoms: _292  and  _295
REMARK  122  A    between atoms: _295  and  _296
REMARK  123  A    between atoms: _296  and  _297
REMARK  124  A    between atoms: _297  and  _298
REMARK  125  A    between atoms: _308  and  _309
REMARK  126  A    between atoms: _314  and  _316
REMARK  127  A    between atoms: _316  and  _317
REMARK  128  A    between atoms: _316  and  _319
REMARK  129  A    between atoms: _319  and  _320
REMARK  130  A    between atoms: _323  and  _325
REMARK  131  A    between atoms: _325  and  _326
REMARK  132  A    between atoms: _325  and  _328
REMARK  133  A    between atoms: _328  and  _329
REMARK  134  A    between atoms: _332  and  _334
REMARK  135  A    between atoms: _334  and  _335
REMARK  136  A    between atoms: _334  and  _337
REMARK  137  A    between atoms: _337  and  _338
REMARK  138  A    between atoms: _341  and  _343
REMARK  139  A    between atoms: _343  and  _344
REMARK  140  A    between atoms: _343  and  _346
REMARK  141  A    between atoms: _346  and  _347
REMARK  142  A    between atoms: _350  and  _352
REMARK  143  A    between atoms: _352  and  _353
REMARK  144  A    between atoms: _352  and  _355
REMARK  145  A    between atoms: _355  and  _356
REMARK  146  A    between atoms: _359  and  _361
REMARK  147  A    between atoms: _361  and  _362
REMARK  148  A    between atoms: _364  and  _366
REMARK  149  A    between atoms: _366  and  _367
REMARK  150  A    between atoms: _370  and  _372
REMARK  151  A    between atoms: _372  and  _373
REMARK  152  A    between atoms: _372  and  _375
REMARK  153  A    between atoms: _375  and  _376
REMARK  154  A    between atoms: _379  and  _381
REMARK  155  A    between atoms: _381  and  _382
REMARK  156  A    between atoms: _381  and  _384
REMARK  157  A    between atoms: _384  and  _385
REMARK  158  A    between atoms: _388  and  _390
REMARK  159  A    between atoms: _390  and  _391
REMARK  160  A    between atoms: _390  and  _393
REMARK  161  A    between atoms: _393  and  _394
REMARK  162  A    between atoms: _397  and  _399
REMARK  163  A    between atoms: _399  and  _400
REMARK  164  A    between atoms: _399  and  _402
REMARK  165  A    between atoms: _402  and  _403
REMARK  166  A    between atoms: _406  and  _408
REMARK  167  A    between atoms: _408  and  _409
REMARK  168  A    between atoms: _408  and  _411
REMARK  169  A    between atoms: _411  and  _412
REMARK  170  A    between atoms: _415  and  _417
REMARK  171  A    between atoms: _417  and  _418
REMARK  172  A    between atoms: _420  and  _422
REMARK  173  A    between atoms: _422  and  _423
REMARK  174  A    between atoms: _425  and  _427
REMARK  175  A    between atoms: _427  and  _428
REMARK  176  A    between atoms: _427  and  _430
REMARK  177  A    between atoms: _430  and  _431
REMARK  178  A    between atoms: _434  and  _436
REMARK  179  A    between atoms: _436  and  _437
REMARK  180  A    between atoms: _439  and  _441
REMARK  181  A    between atoms: _441  and  _442
REMARK  182  A    between atoms: _444  and  _446
REMARK  183  A    between atoms: _446  and  _447
REMARK  184  A    between atoms: _446  and  _449
REMARK  185  A    between atoms: _449  and  _450
REMARK  186  A    between atoms: _456  and  _458
REMARK  187  A    between atoms: _458  and  _459
REMARK  188  A    between atoms: _458  and  _461
REMARK  189  A    between atoms: _461  and  _462
REMARK  190  A    between atoms: _465  and  _467
REMARK  191  A    between atoms: _467  and  _468
REMARK  192  A    between atoms: _467  and  _470
REMARK  193  A    between atoms: _470  and  _471
REMARK  194  A    between atoms: _474  and  _476
REMARK  195  A    between atoms: _476  and  _477
REMARK  196  A    between atoms: _476  and  _479
REMARK  197  A    between atoms: _479  and  _480
REMARK  198  A    between atoms: _484  and  _485
REMARK  199  A    between atoms: _490  and  _492
REMARK  200  A    between atoms: _492  and  _493
REMARK  201  A    between atoms: _492  and  _495
REMARK  202  A    between atoms: _495  and  _496
REMARK  203  A    between atoms: _499  and  _501
REMARK  204  A    between atoms: _501  and  _502
REMARK  205  A    between atoms: _501  and  _504
REMARK  206  A    between atoms: _504  and  _505
REMARK  207  A    between atoms: _510  and  _512
REMARK  208  A    between atoms: _512  and  _513
REMARK  209  A    between atoms: _512  and  _515
REMARK  210  A    between atoms: _518  and  _520
REMARK  211  A    between atoms: _520  and  _521
REMARK  212  A    between atoms: _520  and  _523
REMARK  213  A    between atoms: _523  and  _524
REMARK  214  A    between atoms: _527  and  _529
REMARK  215  A    between atoms: _529  and  _530
REMARK  216  A    between atoms: _532  and  _534
REMARK  217  A    between atoms: _534  and  _535
REMARK  218  A    between atoms: _534  and  _537
REMARK  219  A    between atoms: _537  and  _538
REMARK  220  A    between atoms: _538  and  _539
REMARK  221  A    between atoms: _539  and  _540
REMARK                            x       y       z     vdW  Elec       q    Type
REMARK                         _______ _______ _______ _____ _____    ______ ____
ROOT
ATOM      1  C   ASN A   4      11.420  21.059  27.909  0.00  0.00    +0.241 C 
ATOM      2  O   ASN A   4      11.177  19.841  27.835  0.00  0.00    -0.273 OA
ATOM      3  N   VAL A   5      12.504  21.634  27.409  0.00  0.00    -0.297 N 
ATOM      4  H   VAL A   5      12.652  22.647  27.590  0.00  0.00    +0.150 HD
ENDROOT
BRANCH   3   5
ATOM      5  CA  VAL A   5      13.494  20.927  26.624  0.00  0.00    +0.149 C 
BRANCH   5   6
ATOM      6  C   VAL A   5      14.903  21.150  27.204  0.00  0.00    +0.241 C 
ATOM      7  N   ILE A   6      15.612  20.059  27.513  0.00  0.00    -0.297 N 
ATOM      8  H   ILE A   6      15.157  19.126  27.444  0.00  0.00    +0.150 HD
ATOM      9  O   VAL A   5      15.351  22.298  27.321  0.00  0.00    -0.273 OA
BRANCH   7  10
ATOM     10  CA  ILE A   6      17.008  20.136  27.945  0.00  0.00    +0.149 C 
BRANCH  10  11
ATOM     11  C   ILE A   6      17.840  19.951  26.691  0.00  0.00    +0.241 C 
ATOM     12  N   GLY A   7      18.597  20.973  26.308  0.00  0.00    -0.295 N 
ATOM     13  H   GLY A   7      18.602  21.848  26.870  0.00  0.00    +0.150 HD
ATOM     14  O   ILE A   6      17.786  18.888  26.075  0.00  0.00    -0.273 OA
BRANCH  12  15
ATOM     15  CA  GLY A   7      19.431  20.881  25.095  0.00  0.00    +0.176 C 
BRANCH  15  16
ATOM     16  C   GLY A   7      20.870  20.525  25.416  0.00  0.00    +0.243 C 
ATOM     17  O   GLY A   7      21.219  20.284  26.588  0.00  0.00    -0.273 OA
ATOM     18  N   ARG A   8      21.709  20.513  24.380  0.00  0.00    -0.298 N 
ATOM     19  H   ARG A   8      21.360  20.835  23.455  0.00  0.00    +0.150 HD
BRANCH  18  20
ATOM     20  CA  ARG A   8      23.101  20.067  24.486  0.00  0.00    +0.137 C 
BRANCH  20  21
ATOM     21  C   ARG A   8      23.941  20.872  25.485  0.00  0.00    +0.227 C 
ATOM     22  O   ARG A   8      24.890  20.345  26.070  0.00  0.00    -0.286 OA
ENDBRANCH  20  21
BRANCH  20  23
ATOM     23  CB  ARG A   8      23.785  20.071  23.106  0.00  0.00    +0.031 C 
BRANCH  23  24
ATOM     24  CG  ARG A   8      23.283  18.981  22.139  0.00  0.00    +0.045 C 
BRANCH  24  25
ATOM     25  CD  ARG A   8      24.010  19.012  20.790  0.00  0.00    +0.174 C 
BRANCH  25  26
ATOM     26  NE  ARG A   8      23.937  20.323  20.118  0.00  0.00    -0.265 N 
ATOM     27  CZ  ARG A   8      24.907  21.253  20.089  0.00  0.00    +0.342 C 
ATOM     28  NH2 ARG A   8      26.072  21.091  20.727  0.00  0.00    -0.292 N 
ATOM     29 HH21 ARG A   8      26.251  20.222  21.269  0.00  0.00    +0.255 HD
ATOM     30 HH22 ARG A   8      26.798  21.834  20.681  0.00  0.00    +0.255 HD
ATOM     31  NH1 ARG A   8      24.689  22.381  19.433  0.00  0.00    -0.292 N 
ATOM     32 HH11 ARG A   8      25.427  23.113  19.398  0.00  0.00    +0.255 HD
ATOM     33 HH12 ARG A   8      23.780  22.535  18.952  0.00  0.00    +0.255 HD
ATOM     34  HE  ARG A   8      23.052  20.549  19.620  0.00  0.00    +0.259 HD
ENDBRANCH  25  26
ENDBRANCH  24  25
ENDBRANCH  23  24
ENDBRANCH  20  23
ENDBRANCH  18  20
ENDBRANCH  15  16
ENDBRANCH  12  15
ENDBRANCH  10  11
BRANCH  10  35
ATOM     35  CB  ILE A   6      17.366  19.034  28.969  0.00  0.00    +0.027 C 
ATOM     36  CG2 ILE A   6      18.825  19.201  29.415  0.00  0.00    +0.002 C 
BRANCH  35  37
ATOM     37  CG1 ILE A   6      16.398  19.077  30.189  0.00  0.00    +0.002 C 
ATOM     38  CD1 ILE A   6      16.348  20.464  30.879  0.00  0.00    +0.000 C 
ENDBRANCH  35  37
ENDBRANCH  10  35
ENDBRANCH   7  10
ENDBRANCH   5   6
BRANCH   5  39
ATOM     39  CB  VAL A   5      13.456  21.447  25.143  0.00  0.00    +0.027 C 
ATOM     40  CG2 VAL A   5      12.085  21.139  24.475  0.00  0.00    +0.002 C 
ATOM     41  CG1 VAL A   5      14.609  20.888  24.311  0.00  0.00    +0.002 C 
ENDBRANCH   5  39
ENDBRANCH   3   5
BRANCH   1  42
ATOM     42  CA  ASN A   4      10.457  22.011  28.592  0.00  0.00    +0.158 C 
BRANCH  42  44
ATOM     43  C   LEU A   3       8.652  22.008  26.943  0.00  0.00    +0.241 C 
ATOM     44  N   ASN A   4       9.085  21.702  28.176  0.00  0.00    -0.297 N 
ATOM     45  H   ASN A   4       8.438  21.239  28.846  0.00  0.00    +0.150 HD
ATOM     46  O   LEU A   3       9.352  22.632  26.123  0.00  0.00    -0.273 OA
BRANCH  43  47
ATOM     47  CA  LEU A   3       7.234  21.568  26.548  0.00  0.00    +0.149 C 
BRANCH  47  49
ATOM     48  C   PRO A   2       5.661  22.175  24.700  0.00  0.00    +0.241 C 
ATOM     49  N   LEU A   3       6.873  22.223  25.262  0.00  0.00    -0.297 N 
ATOM     50  H   LEU A   3       7.616  22.756  24.765  0.00  0.00    +0.150 HD
ATOM     51  O   PRO A   2       4.703  21.623  25.223  0.00  0.00    -0.273 OA
BRANCH  48  55
ATOM     52  C   THR A   1       6.569  24.994  23.901  0.00  0.00    +0.244 C 
ATOM     53  O   THR A   1       5.812  25.160  24.865  0.00  0.00    -0.273 OA
ATOM     54  N   PRO A   2       6.452  23.945  23.059  0.00  0.00    -0.272 N 
ATOM     55  CA  PRO A   2       5.484  22.869  23.327  0.00  0.00    +0.152 C 
ATOM     56  CB  PRO A   2       5.729  21.875  22.189  0.00  0.00    +0.031 C 
ATOM     57  CG  PRO A   2       7.091  22.231  21.643  0.00  0.00    +0.024 C 
ATOM     58  CD  PRO A   2       7.206  23.685  21.814  0.00  0.00    +0.094 C 
BRANCH  52  59
ATOM     59  CA  THR A   1       7.651  26.038  23.650  0.00  0.00    +0.172 C 
BRANCH  59  60
ATOM     60  N   THR A   1       7.153  27.345  24.114  0.00  0.00    -0.236 NA
ATOM     61  H   THR A   1       6.715  27.417  25.054  0.00  0.00    +0.142 HD
ENDBRANCH  59  60
BRANCH  59  62
ATOM     62  CB  THR A   1       9.026  25.699  24.325  0.00  0.00    +0.135 C 
ATOM     63  CG2 THR A   1       8.960  25.777  25.885  0.00  0.00    +0.034 C 
BRANCH  62  64
ATOM     64  OG1 THR A   1       9.434  24.348  24.031  0.00  0.00    -0.383 OA
ATOM     65  HG1 THR A   1       8.751  23.717  24.371  0.00  0.00    +0.210 HD
ENDBRANCH  62  64
ENDBRANCH  59  62
ENDBRANCH  52  59
ENDBRANCH  48  55
ENDBRANCH  47  49
BRANCH  47  66
ATOM     66  CB  LEU A   3       7.120  20.024  26.457  0.00  0.00    +0.029 C 
BRANCH  66  67
ATOM     67  CG  LEU A   3       8.137  19.039  25.830  0.00  0.00    +0.002 C 
ATOM     68  CD2 LEU A   3       7.497  17.653  25.676  0.00  0.00    +0.000 C 
ATOM     69  CD1 LEU A   3       8.716  19.532  24.493  0.00  0.00    +0.000 C 
ENDBRANCH  66  67
ENDBRANCH  47  66
ENDBRANCH  43  47
ENDBRANCH  42  44
BRANCH  42  70
ATOM     70  CB  ASN A   4      10.616  21.919  30.126  0.00  0.00    +0.114 C 
BRANCH  70  71
ATOM     71  CG  ASN A   4       9.559  22.720  30.846  0.00  0.00    +0.222 C 
ATOM     72  ND2 ASN A   4       8.943  22.138  31.864  0.00  0.00    -0.329 N 
ATOM     73 HD21 ASN A   4       8.182  22.638  32.366  0.00  0.00    +0.145 HD
ATOM     74 HD22 ASN A   4       9.220  21.181  32.161  0.00  0.00    +0.145 HD
ATOM     75  OD1 ASN A   4       9.269  23.849  30.456  0.00  0.00    -0.275 OA
ENDBRANCH  70  71
ENDBRANCH  42  70
ENDBRANCH   1  42
TORSDOF 28
REMARK  Name = ../refined-set-2016/2o4n/2o4n_pocket.pdb
REMARK  221 active torsions:
REMARK  status: ('A' for Active; 'I' for Inactive)
REMARK    1  A    between atoms: _1  and  _3
REMARK    2  A    between atoms: _3  and  _4
REMARK    3  A    between atoms: _3  and  _6
REMARK    4  A    between atoms: _6  and  _7
REMARK    5  A    between atoms: _7  and  _8
REMARK    6  A    between atoms: _8  and  _9
REMARK    7  A    between atoms: _18  and  _20
REMARK    8  A    between atoms: _20  and  _21
REMARK    9  A    between atoms: _20  and  _23
REMARK   10  A    between atoms: _23  and  _24
REMARK   11  A    between atoms: _27  and  _29
REMARK   12  A    between atoms: _29  and  _30
REMARK   13  A    between atoms: _29  and  _32
REMARK   14  A    between atoms: _32  and  _33
REMARK   15  A    between atoms: _36  and  _38
REMARK   16  A    between atoms: _38  and  _39
REMARK   17  A    between atoms: _38  and  _41
REMARK   18  A    between atoms: _41  and  _42
REMARK   19  A    between atoms: _45  and  _47
REMARK   20  A    between atoms: _47  and  _48
REMARK   21  A    between atoms: _47  and  _50
REMARK   22  A    between atoms: _50  and  _51
REMARK   23  A    between atoms: _54  and  _56
REMARK   24  A    between atoms: _56  and  _57
REMARK   25  A    between atoms: _56  and  _59
REMARK   26  A    between atoms: _59  and  _60
REMARK   27  A    between atoms: _63  and  _65
REMARK   28  A    between atoms: _65  and  _66
REMARK   29  A    between atoms: _68  and  _70
REMARK   30  A    between atoms: _70  and  _71
REMARK   31  A    between atoms: _74  and  _76
REMARK   32  A    between atoms: _76  and  _77
REMARK   33  A    between atoms: _76  and  _79
REMARK   34  A    between atoms: _79  and  _80
REMARK   35  A    between atoms: _83  and  _85
REMARK   36  A    between atoms: _85  and  _86
REMARK   37  A    between atoms: _85  and  _88
REMARK   38  A    between atoms: _88  and  _89
REMARK   39  A    between atoms: _92  and  _94
REMARK   40  A    between atoms: _94  and  _95
REMARK   41  A    between atoms: _94  and  _97
REMARK   42  A    between atoms: _97  and  _98
REMARK   43  A    between atoms: _101  and  _103
REMARK   44  A    between atoms: _103  and  _104
REMARK   45  A    between atoms: _103  and  _106
REMARK   46  A    between atoms: _106  and  _107
REMARK   47  A    between atoms: _110  and  _112
REMARK   48  A    between atoms: _112  and  _113
REMARK   49  A    between atoms: _112  and  _115
REMARK   50  A    between atoms: _115  and  _116
REMARK   51  A    between atoms: _119  and  _121
REMARK   52  A    between atoms: _121  and  _122
REMARK   53  A    between atoms: _121  and  _124
REMARK   54  A    between atoms: _124  and  _125
REMARK   55  A    between atoms: _125  and  _126
REMARK   56  A    between atoms: _128  and  _130
REMARK   57  A    between atoms: _130  and  _131
REMARK   58  A    between atoms: _130  and  _133
REMARK   59  A    between atoms: _133  and  _134
REMARK   60  A    between atoms: _137  and  _139
REMARK   61  A    between atoms: _139  and  _140
REMARK   62  A    between atoms: _142  and  _144
REMARK   63  A    between atoms: _144  and  _145
REMARK   64  A    between atoms: _147  and  _149
REMARK   65  A    between atoms: _149  and  _150
REMARK   66  A    between atoms: _149  and  _152
REMARK   67  A    between atoms: _152  and  _153
REMARK   68  A    between atoms: _156  and  _158
REMARK   69  A    between atoms: _158  and  _159
REMARK   70  A    between atoms: _161  and  _163
REMARK   71  A    between atoms: _163  and  _164
REMARK   72  A    between atoms: _166  and  _168
REMARK   73  A    between atoms: _168  and  _169
REMARK   74  A    between atoms: _168  and  _171
REMARK   75  A    between atoms: _171  and  _172
REMARK   76  A    between atoms: _178  and  _180
REMARK   77  A    between atoms: _180  and  _181
REMARK   78  A    between atoms: _180  and  _183
REMARK   79  A    between atoms: _183  and  _184
REMARK   80  A    between atoms: _187  and  _189
REMARK   81  A    between atoms: _189  and  _190
REMARK   82  A    between atoms: _189  and  _192
REMARK   83  A    between atoms: _195  and  _197
REMARK   84  A    between atoms: _197  and  _198
REMARK   85  A    between atoms: _197  and  _200
REMARK   86  A    between atoms: _200  and  _201
REMARK   87  A    between atoms: _204  and  _206
REMARK   88  A    between atoms: _206  and  _207
REMARK   89  A    between atoms: _206  and  _209
REMARK   90  A    between atoms: _209  and  _210
REMARK   91  A    between atoms: _214  and  _215
REMARK   92  A    between atoms: _220  and  _222
REMARK   93  A    between atoms: _222  and  _223
REMARK   94  A    between atoms: _222  and  _225
REMARK   95  A    between atoms: _225  and  _226
REMARK   96  A    between atoms: _229  and  _231
REMARK   97  A    between atoms: _231  and  _232
REMARK   98  A    between atoms: _231  and  _234
REMARK   99  A    between atoms: _234  and  _235
REMARK  100  A    between atoms: _240  and  _242
REMARK  101  A    between atoms: _242  and  _243
REMARK  102  A    between atoms: _242  and  _245
REMARK  103  A    between atoms: _248  and  _250
REMARK  104  A    between atoms: _250  and  _251
REMARK  105  A    between atoms: _250  and  _253
REMARK  106  A    between atoms: _253  and  _254
REMARK  107  A    between atoms: _257  and  _259
REMARK  108  A    between atoms: _259  and  _260
REMARK  109  A    between atoms: _262  and  _264
REMARK  110  A    between atoms: _264  and  _265
REMARK  111  A    between atoms: _264  and  _267
REMARK  112  A    between atoms: _267  and  _268
REMARK  113  A    between atoms: _268  and  _269
REMARK  114  A    between atoms: _269  and  _270
REMARK  115  A    between atoms: _279  and  _281
REMARK  116  A    between atoms: _281  and  _282
REMARK  117  A    between atoms: _281  and  _284
REMARK  118  A    between atoms: _284  and  _285
REMARK  119  A    between atoms: _290  and  _292
REMARK  120  A    between atoms: _292  and  _293
REMARK  121  A    between atoms: _292  and  _295
REMARK  122  A    between atoms: _295  and  _296
REMARK  123  A    between atoms: _296  and  _297
REMARK  124  A    between atoms: _297  and  _298
REMARK  125  A    between atoms: _308  and  _309
REMARK  126  A    between atoms: _314  and  _316
REMARK  127  A    between atoms: _316  and  _317
REMARK  128  A    between atoms: _316  and  _319
REMARK  129  A    between atoms: _319  and  _320
REMARK  130  A    between atoms: _323  and  _325
REMARK  131  A    between atoms: _325  and  _326
REMARK  132  A    between atoms: _325  and  _328
REMARK  133  A    between atoms: _328  and  _329
REMARK  134  A    between atoms: _332  and  _334
REMARK  135  A    between atoms: _334  and  _335
REMARK  136  A    between atoms: _334  and  _337
REMARK  137  A    between atoms: _337  and  _338
REMARK  138  A    between atoms: _341  and  _343
REMARK  139  A    between atoms: _343  and  _344
REMARK  140  A    between atoms: _343  and  _346
REMARK  141  A    between atoms: _346  and  _347
REMARK  142  A    between atoms: _350  and  _352
REMARK  143  A    between atoms: _352  and  _353
REMARK  144  A    between atoms: _352  and  _355
REMARK  145  A    between atoms: _355  and  _356
REMARK  146  A    between atoms: _359  and  _361
REMARK  147  A    between atoms: _361  and  _362
REMARK  148  A    between atoms: _364  and  _366
REMARK  149  A    between atoms: _366  and  _367
REMARK  150  A    between atoms: _370  and  _372
REMARK  151  A    between atoms: _372  and  _373
REMARK  152  A    between atoms: _372  and  _375
REMARK  153  A    between atoms: _375  and  _376
REMARK  154  A    between atoms: _379  and  _381
REMARK  155  A    between atoms: _381  and  _382
REMARK  156  A    between atoms: _381  and  _384
REMARK  157  A    between atoms: _384  and  _385
REMARK  158  A    between atoms: _388  and  _390
REMARK  159  A    between atoms: _390  and  _391
REMARK  160  A    between atoms: _390  and  _393
REMARK  161  A    between atoms: _393  and  _394
REMARK  162  A    between atoms: _397  and  _399
REMARK  163  A    between atoms: _399  and  _400
REMARK  164  A    between atoms: _399  and  _402
REMARK  165  A    between atoms: _402  and  _403
REMARK  166  A    between atoms: _406  and  _408
REMARK  167  A    between atoms: _408  and  _409
REMARK  168  A    between atoms: _408  and  _411
REMARK  169  A    between atoms: _411  and  _412
REMARK  170  A    between atoms: _415  and  _417
REMARK  171  A    between atoms: _417  and  _418
REMARK  172  A    between atoms: _420  and  _422
REMARK  173  A    between atoms: _422  and  _423
REMARK  174  A    between atoms: _425  and  _427
REMARK  175  A    between atoms: _427  and  _428
REMARK  176  A    between atoms: _427  and  _430
REMARK  177  A    between atoms: _430  and  _431
REMARK  178  A    between atoms: _434  and  _436
REMARK  179  A    between atoms: _436  and  _437
REMARK  180  A    between atoms: _439  and  _441
REMARK  181  A    between atoms: _441  and  _442
REMARK  182  A    between atoms: _444  and  _446
REMARK  183  A    between atoms: _446  and  _447
REMARK  184  A    between atoms: _446  and  _449
REMARK  185  A    between atoms: _449  and  _450
REMARK  186  A    between atoms: _456  and  _458
REMARK  187  A    between atoms: _458  and  _459
REMARK  188  A    between atoms: _458  and  _461
REMARK  189  A    between atoms: _461  and  _462
REMARK  190  A    between atoms: _465  and  _467
REMARK  191  A    between atoms: _467  and  _468
REMARK  192  A    between atoms: _467  and  _470
REMARK  193  A    between atoms: _470  and  _471
REMARK  194  A    between atoms: _474  and  _476
REMARK  195  A    between atoms: _476  and  _477
REMARK  196  A    between atoms: _476  and  _479
REMARK  197  A    between atoms: _479  and  _480
REMARK  198  A    between atoms: _484  and  _485
REMARK  199  A    between atoms: _490  and  _492
REMARK  200  A    between atoms: _492  and  _493
REMARK  201  A    between atoms: _492  and  _495
REMARK  202  A    between atoms: _495  and  _496
REMARK  203  A    between atoms: _499  and  _501
REMARK  204  A    between atoms: _501  and  _502
REMARK  205  A    between atoms: _501  and  _504
REMARK  206  A    between atoms: _504  and  _505
REMARK  207  A    between atoms: _510  and  _512
REMARK  208  A    between atoms: _512  and  _513
REMARK  209  A    between atoms: _512  and  _515
REMARK  210  A    between atoms: _518  and  _520
REMARK  211  A    between atoms: _520  and  _521
REMARK  212  A    between atoms: _520  and  _523
REMARK  213  A    between atoms: _523  and  _524
REMARK  214  A    between atoms: _527  and  _529
REMARK  215  A    between atoms: _529  and  _530
REMARK  216  A    between atoms: _532  and  _534
REMARK  217  A    between atoms: _534  and  _535
REMARK  218  A    between atoms: _534  and  _537
REMARK  219  A    between atoms: _537  and  _538
REMARK  220  A    between atoms: _538  and  _539
REMARK  221  A    between atoms: _539  and  _540
REMARK                            x       y       z     vdW  Elec       q    Type
REMARK                         _______ _______ _______ _____ _____    ______ ____
ROOT
ATOM      1  O   HOH     1       8.570   9.784  11.000  0.00  0.00    +0.000 OA
ENDROOT
TORSDOF 0
REMARK  Name = ../refined-set-2016/2o4n/2o4n_pocket.pdb
REMARK  221 active torsions:
REMARK  status: ('A' for Active; 'I' for Inactive)
REMARK    1  A    between atoms: _1  and  _3
REMARK    2  A    between atoms: _3  and  _4
REMARK    3  A    between atoms: _3  and  _6
REMARK    4  A    between atoms: _6  and  _7
REMARK    5  A    between atoms: _7  and  _8
REMARK    6  A    between atoms: _8  and  _9
REMARK    7  A    between atoms: _18  and  _20
REMARK    8  A    between atoms: _20  and  _21
REMARK    9  A    between atoms: _20  and  _23
REMARK   10  A    between atoms: _23  and  _24
REMARK   11  A    between atoms: _27  and  _29
REMARK   12  A    between atoms: _29  and  _30
REMARK   13  A    between atoms: _29  and  _32
REMARK   14  A    between atoms: _32  and  _33
REMARK   15  A    between atoms: _36  and  _38
REMARK   16  A    between atoms: _38  and  _39
REMARK   17  A    between atoms: _38  and  _41
REMARK   18  A    between atoms: _41  and  _42
REMARK   19  A    between atoms: _45  and  _47
REMARK   20  A    between atoms: _47  and  _48
REMARK   21  A    between atoms: _47  and  _50
REMARK   22  A    between atoms: _50  and  _51
REMARK   23  A    between atoms: _54  and  _56
REMARK   24  A    between atoms: _56  and  _57
REMARK   25  A    between atoms: _56  and  _59
REMARK   26  A    between atoms: _59  and  _60
REMARK   27  A    between atoms: _63  and  _65
REMARK   28  A    between atoms: _65  and  _66
REMARK   29  A    between atoms: _68  and  _70
REMARK   30  A    between atoms: _70  and  _71
REMARK   31  A    between atoms: _74  and  _76
REMARK   32  A    between atoms: _76  and  _77
REMARK   33  A    between atoms: _76  and  _79
REMARK   34  A    between atoms: _79  and  _80
REMARK   35  A    between atoms: _83  and  _85
REMARK   36  A    between atoms: _85  and  _86
REMARK   37  A    between atoms: _85  and  _88
REMARK   38  A    between atoms: _88  and  _89
REMARK   39  A    between atoms: _92  and  _94
REMARK   40  A    between atoms: _94  and  _95
REMARK   41  A    between atoms: _94  and  _97
REMARK   42  A    between atoms: _97  and  _98
REMARK   43  A    between atoms: _101  and  _103
REMARK   44  A    between atoms: _103  and  _104
REMARK   45  A    between atoms: _103  and  _106
REMARK   46  A    between atoms: _106  and  _107
REMARK   47  A    between atoms: _110  and  _112
REMARK   48  A    between atoms: _112  and  _113
REMARK   49  A    between atoms: _112  and  _115
REMARK   50  A    between atoms: _115  and  _116
REMARK   51  A    between atoms: _119  and  _121
REMARK   52  A    between atoms: _121  and  _122
REMARK   53  A    between atoms: _121  and  _124
REMARK   54  A    between atoms: _124  and  _125
REMARK   55  A    between atoms: _125  and  _126
REMARK   56  A    between atoms: _128  and  _130
REMARK   57  A    between atoms: _130  and  _131
REMARK   58  A    between atoms: _130  and  _133
REMARK   59  A    between atoms: _133  and  _134
REMARK   60  A    between atoms: _137  and  _139
REMARK   61  A    between atoms: _139  and  _140
REMARK   62  A    between atoms: _142  and  _144
REMARK   63  A    between atoms: _144  and  _145
REMARK   64  A    between atoms: _147  and  _149
REMARK   65  A    between atoms: _149  and  _150
REMARK   66  A    between atoms: _149  and  _152
REMARK   67  A    between atoms: _152  and  _153
REMARK   68  A    between atoms: _156  and  _158
REMARK   69  A    between atoms: _158  and  _159
REMARK   70  A    between atoms: _161  and  _163
REMARK   71  A    between atoms: _163  and  _164
REMARK   72  A    between atoms: _166  and  _168
REMARK   73  A    between atoms: _168  and  _169
REMARK   74  A    between atoms: _168  and  _171
REMARK   75  A    between atoms: _171  and  _172
REMARK   76  A    between atoms: _178  and  _180
REMARK   77  A    between atoms: _180  and  _181
REMARK   78  A    between atoms: _180  and  _183
REMARK   79  A    between atoms: _183  and  _184
REMARK   80  A    between atoms: _187  and  _189
REMARK   81  A    between atoms: _189  and  _190
REMARK   82  A    between atoms: _189  and  _192
REMARK   83  A    between atoms: _195  and  _197
REMARK   84  A    between atoms: _197  and  _198
REMARK   85  A    between atoms: _197  and  _200
REMARK   86  A    between atoms: _200  and  _201
REMARK   87  A    between atoms: _204  and  _206
REMARK   88  A    between atoms: _206  and  _207
REMARK   89  A    between atoms: _206  and  _209
REMARK   90  A    between atoms: _209  and  _210
REMARK   91  A    between atoms: _214  and  _215
REMARK   92  A    between atoms: _220  and  _222
REMARK   93  A    between atoms: _222  and  _223
REMARK   94  A    between atoms: _222  and  _225
REMARK   95  A    between atoms: _225  and  _226
REMARK   96  A    between atoms: _229  and  _231
REMARK   97  A    between atoms: _231  and  _232
REMARK   98  A    between atoms: _231  and  _234
REMARK   99  A    between atoms: _234  and  _235
REMARK  100  A    between atoms: _240  and  _242
REMARK  101  A    between atoms: _242  and  _243
REMARK  102  A    between atoms: _242  and  _245
REMARK  103  A    between atoms: _248  and  _250
REMARK  104  A    between atoms: _250  and  _251
REMARK  105  A    between atoms: _250  and  _253
REMARK  106  A    between atoms: _253  and  _254
REMARK  107  A    between atoms: _257  and  _259
REMARK  108  A    between atoms: _259  and  _260
REMARK  109  A    between atoms: _262  and  _264
REMARK  110  A    between atoms: _264  and  _265
REMARK  111  A    between atoms: _264  and  _267
REMARK  112  A    between atoms: _267  and  _268
REMARK  113  A    between atoms: _268  and  _269
REMARK  114  A    between atoms: _269  and  _270
REMARK  115  A    between atoms: _279  and  _281
REMARK  116  A    between atoms: _281  and  _282
REMARK  117  A    between atoms: _281  and  _284
REMARK  118  A    between atoms: _284  and  _285
REMARK  119  A    between atoms: _290  and  _292
REMARK  120  A    between atoms: _292  and  _293
REMARK  121  A    between atoms: _292  and  _295
REMARK  122  A    between atoms: _295  and  _296
REMARK  123  A    between atoms: _296  and  _297
REMARK  124  A    between atoms: _297  and  _298
REMARK  125  A    between atoms: _308  and  _309
REMARK  126  A    between atoms: _314  and  _316
REMARK  127  A    between atoms: _316  and  _317
REMARK  128  A    between atoms: _316  and  _319
REMARK  129  A    between atoms: _319  and  _320
REMARK  130  A    between atoms: _323  and  _325
REMARK  131  A    between atoms: _325  and  _326
REMARK  132  A    between atoms: _325  and  _328
REMARK  133  A    between atoms: _328  and  _329
REMARK  134  A    between atoms: _332  and  _334
REMARK  135  A    between atoms: _334  and  _335
REMARK  136  A    between atoms: _334  and  _337
REMARK  137  A    between atoms: _337  and  _338
REMARK  138  A    between atoms: _341  and  _343
REMARK  139  A    between atoms: _343  and  _344
REMARK  140  A    between atoms: _343  and  _346
REMARK  141  A    between atoms: _346  and  _347
REMARK  142  A    between atoms: _350  and  _352
REMARK  143  A    between atoms: _352  and  _353
REMARK  144  A    between atoms: _352  and  _355
REMARK  145  A    between atoms: _355  and  _356
REMARK  146  A    between atoms: _359  and  _361
REMARK  147  A    between atoms: _361  and  _362
REMARK  148  A    between atoms: _364  and  _366
REMARK  149  A    between atoms: _366  and  _367
REMARK  150  A    between atoms: _370  and  _372
REMARK  151  A    between atoms: _372  and  _373
REMARK  152  A    between atoms: _372  and  _375
REMARK  153  A    between atoms: _375  and  _376
REMARK  154  A    between atoms: _379  and  _381
REMARK  155  A    between atoms: _381  and  _382
REMARK  156  A    between atoms: _381  and  _384
REMARK  157  A    between atoms: _384  and  _385
REMARK  158  A    between atoms: _388  and  _390
REMARK  159  A    between atoms: _390  and  _391
REMARK  160  A    between atoms: _390  and  _393
REMARK  161  A    between atoms: _393  and  _394
REMARK  162  A    between atoms: _397  and  _399
REMARK  163  A    between atoms: _399  and  _400
REMARK  164  A    between atoms: _399  and  _402
REMARK  165  A    between atoms: _402  and  _403
REMARK  166  A    between atoms: _406  and  _408
REMARK  167  A    between atoms: _408  and  _409
REMARK  168  A    between atoms: _408  and  _411
REMARK  169  A    between atoms: _411  and  _412
REMARK  170  A    between atoms: _415  and  _417
REMARK  171  A    between atoms: _417  and  _418
REMARK  172  A    between atoms: _420  and  _422
REMARK  173  A    between atoms: _422  and  _423
REMARK  174  A    between atoms: _425  and  _427
REMARK  175  A    between atoms: _427  and  _428
REMARK  176  A    between atoms: _427  and  _430
REMARK  177  A    between atoms: _430  and  _431
REMARK  178  A    between atoms: _434  and  _436
REMARK  179  A    between atoms: _436  and  _437
REMARK  180  A    between atoms: _439  and  _441
REMARK  181  A    between atoms: _441  and  _442
REMARK  182  A    between atoms: _444  and  _446
REMARK  183  A    between atoms: _446  and  _447
REMARK  184  A    between atoms: _446  and  _449
REMARK  185  A    between atoms: _449  and  _450
REMARK  186  A    between atoms: _456  and  _458
REMARK  187  A    between atoms: _458  and  _459
REMARK  188  A    between atoms: _458  and  _461
REMARK  189  A    between atoms: _461  and  _462
REMARK  190  A    between atoms: _465  and  _467
REMARK  191  A    between atoms: _467  and  _468
REMARK  192  A    between atoms: _467  and  _470
REMARK  193  A    between atoms: _470  and  _471
REMARK  194  A    between atoms: _474  and  _476
REMARK  195  A    between atoms: _476  and  _477
REMARK  196  A    between atoms: _476  and  _479
REMARK  197  A    between atoms: _479  and  _480
REMARK  198  A    between atoms: _484  and  _485
REMARK  199  A    between atoms: _490  and  _492
REMARK  200  A    between atoms: _492  and  _493
REMARK  201  A    between atoms: _492  and  _495
REMARK  202  A    between atoms: _495  and  _496
REMARK  203  A    between atoms: _499  and  _501
REMARK  204  A    between atoms: _501  and  _502
REMARK  205  A    between atoms: _501  and  _504
REMARK  206  A    between atoms: _504  and  _505
REMARK  207  A    between atoms: _510  and  _512
REMARK  208  A    between atoms: _512  and  _513
REMARK  209  A    between atoms: _512  and  _515
REMARK  210  A    between atoms: _518  and  _520
REMARK  211  A    between atoms: _520  and  _521
REMARK  212  A    between atoms: _520  and  _523
REMARK  213  A    between atoms: _523  and  _524
REMARK  214  A    between atoms: _527  and  _529
REMARK  215  A    between atoms: _529  and  _530
REMARK  216  A    between atoms: _532  and  _534
REMARK  217  A    between atoms: _534  and  _535
REMARK  218  A    between atoms: _534  and  _537
REMARK  219  A    between atoms: _537  and  _538
REMARK  220  A    between atoms: _538  and  _539
REMARK  221  A    between atoms: _539  and  _540
REMARK                            x       y       z     vdW  Elec       q    Type
REMARK                         _______ _______ _______ _____ _____    ______ ____
ROOT
ATOM      1  O   HOH     1       8.054   7.849  17.834  0.00  0.00    +0.000 OA
ENDROOT
TORSDOF 0
REMARK  Name = ../refined-set-2016/2o4n/2o4n_pocket.pdb
REMARK  221 active torsions:
REMARK  status: ('A' for Active; 'I' for Inactive)
REMARK    1  A    between atoms: _1  and  _3
REMARK    2  A    between atoms: _3  and  _4
REMARK    3  A    between atoms: _3  and  _6
REMARK    4  A    between atoms: _6  and  _7
REMARK    5  A    between atoms: _7  and  _8
REMARK    6  A    between atoms: _8  and  _9
REMARK    7  A    between atoms: _18  and  _20
REMARK    8  A    between atoms: _20  and  _21
REMARK    9  A    between atoms: _20  and  _23
REMARK   10  A    between atoms: _23  and  _24
REMARK   11  A    between atoms: _27  and  _29
REMARK   12  A    between atoms: _29  and  _30
REMARK   13  A    between atoms: _29  and  _32
REMARK   14  A    between atoms: _32  and  _33
REMARK   15  A    between atoms: _36  and  _38
REMARK   16  A    between atoms: _38  and  _39
REMARK   17  A    between atoms: _38  and  _41
REMARK   18  A    between atoms: _41  and  _42
REMARK   19  A    between atoms: _45  and  _47
REMARK   20  A    between atoms: _47  and  _48
REMARK   21  A    between atoms: _47  and  _50
REMARK   22  A    between atoms: _50  and  _51
REMARK   23  A    between atoms: _54  and  _56
REMARK   24  A    between atoms: _56  and  _57
REMARK   25  A    between atoms: _56  and  _59
REMARK   26  A    between atoms: _59  and  _60
REMARK   27  A    between atoms: _63  and  _65
REMARK   28  A    between atoms: _65  and  _66
REMARK   29  A    between atoms: _68  and  _70
REMARK   30  A    between atoms: _70  and  _71
REMARK   31  A    between atoms: _74  and  _76
REMARK   32  A    between atoms: _76  and  _77
REMARK   33  A    between atoms: _76  and  _79
REMARK   34  A    between atoms: _79  and  _80
REMARK   35  A    between atoms: _83  and  _85
REMARK   36  A    between atoms: _85  and  _86
REMARK   37  A    between atoms: _85  and  _88
REMARK   38  A    between atoms: _88  and  _89
REMARK   39  A    between atoms: _92  and  _94
REMARK   40  A    between atoms: _94  and  _95
REMARK   41  A    between atoms: _94  and  _97
REMARK   42  A    between atoms: _97  and  _98
REMARK   43  A    between atoms: _101  and  _103
REMARK   44  A    between atoms: _103  and  _104
REMARK   45  A    between atoms: _103  and  _106
REMARK   46  A    between atoms: _106  and  _107
REMARK   47  A    between atoms: _110  and  _112
REMARK   48  A    between atoms: _112  and  _113
REMARK   49  A    between atoms: _112  and  _115
REMARK   50  A    between atoms: _115  and  _116
REMARK   51  A    between atoms: _119  and  _121
REMARK   52  A    between atoms: _121  and  _122
REMARK   53  A    between atoms: _121  and  _124
REMARK   54  A    between atoms: _124  and  _125
REMARK   55  A    between atoms: _125  and  _126
REMARK   56  A    between atoms: _128  and  _130
REMARK   57  A    between atoms: _130  and  _131
REMARK   58  A    between atoms: _130  and  _133
REMARK   59  A    between atoms: _133  and  _134
REMARK   60  A    between atoms: _137  and  _139
REMARK   61  A    between atoms: _139  and  _140
REMARK   62  A    between atoms: _142  and  _144
REMARK   63  A    between atoms: _144  and  _145
REMARK   64  A    between atoms: _147  and  _149
REMARK   65  A    between atoms: _149  and  _150
REMARK   66  A    between atoms: _149  and  _152
REMARK   67  A    between atoms: _152  and  _153
REMARK   68  A    between atoms: _156  and  _158
REMARK   69  A    between atoms: _158  and  _159
REMARK   70  A    between atoms: _161  and  _163
REMARK   71  A    between atoms: _163  and  _164
REMARK   72  A    between atoms: _166  and  _168
REMARK   73  A    between atoms: _168  and  _169
REMARK   74  A    between atoms: _168  and  _171
REMARK   75  A    between atoms: _171  and  _172
REMARK   76  A    between atoms: _178  and  _180
REMARK   77  A    between atoms: _180  and  _181
REMARK   78  A    between atoms: _180  and  _183
REMARK   79  A    between atoms: _183  and  _184
REMARK   80  A    between atoms: _187  and  _189
REMARK   81  A    between atoms: _189  and  _190
REMARK   82  A    between atoms: _189  and  _192
REMARK   83  A    between atoms: _195  and  _197
REMARK   84  A    between atoms: _197  and  _198
REMARK   85  A    between atoms: _197  and  _200
REMARK   86  A    between atoms: _200  and  _201
REMARK   87  A    between atoms: _204  and  _206
REMARK   88  A    between atoms: _206  and  _207
REMARK   89  A    between atoms: _206  and  _209
REMARK   90  A    between atoms: _209  and  _210
REMARK   91  A    between atoms: _214  and  _215
REMARK   92  A    between atoms: _220  and  _222
REMARK   93  A    between atoms: _222  and  _223
REMARK   94  A    between atoms: _222  and  _225
REMARK   95  A    between atoms: _225  and  _226
REMARK   96  A    between atoms: _229  and  _231
REMARK   97  A    between atoms: _231  and  _232
REMARK   98  A    between atoms: _231  and  _234
REMARK   99  A    between atoms: _234  and  _235
REMARK  100  A    between atoms: _240  and  _242
REMARK  101  A    between atoms: _242  and  _243
REMARK  102  A    between atoms: _242  and  _245
REMARK  103  A    between atoms: _248  and  _250
REMARK  104  A    between atoms: _250  and  _251
REMARK  105  A    between atoms: _250  and  _253
REMARK  106  A    between atoms: _253  and  _254
REMARK  107  A    between atoms: _257  and  _259
REMARK  108  A    between atoms: _259  and  _260
REMARK  109  A    between atoms: _262  and  _264
REMARK  110  A    between atoms: _264  and  _265
REMARK  111  A    between atoms: _264  and  _267
REMARK  112  A    between atoms: _267  and  _268
REMARK  113  A    between atoms: _268  and  _269
REMARK  114  A    between atoms: _269  and  _270
REMARK  115  A    between atoms: _279  and  _281
REMARK  116  A    between atoms: _281  and  _282
REMARK  117  A    between atoms: _281  and  _284
REMARK  118  A    between atoms: _284  and  _285
REMARK  119  A    between atoms: _290  and  _292
REMARK  120  A    between atoms: _292  and  _293
REMARK  121  A    between atoms: _292  and  _295
REMARK  122  A    between atoms: _295  and  _296
REMARK  123  A    between atoms: _296  and  _297
REMARK  124  A    between atoms: _297  and  _298
REMARK  125  A    between atoms: _308  and  _309
REMARK  126  A    between atoms: _314  and  _316
REMARK  127  A    between atoms: _316  and  _317
REMARK  128  A    between atoms: _316  and  _319
REMARK  129  A    between atoms: _319  and  _320
REMARK  130  A    between atoms: _323  and  _325
REMARK  131  A    between atoms: _325  and  _326
REMARK  132  A    between atoms: _325  and  _328
REMARK  133  A    between atoms: _328  and  _329
REMARK  134  A    between atoms: _332  and  _334
REMARK  135  A    between atoms: _334  and  _335
REMARK  136  A    between atoms: _334  and  _337
REMARK  137  A    between atoms: _337  and  _338
REMARK  138  A    between atoms: _341  and  _343
REMARK  139  A    between atoms: _343  and  _344
REMARK  140  A    between atoms: _343  and  _346
REMARK  141  A    between atoms: _346  and  _347
REMARK  142  A    between atoms: _350  and  _352
REMARK  143  A    between atoms: _352  and  _353
REMARK  144  A    between atoms: _352  and  _355
REMARK  145  A    between atoms: _355  and  _356
REMARK  146  A    between atoms: _359  and  _361
REMARK  147  A    between atoms: _361  and  _362
REMARK  148  A    between atoms: _364  and  _366
REMARK  149  A    between atoms: _366  and  _367
REMARK  150  A    between atoms: _370  and  _372
REMARK  151  A    between atoms: _372  and  _373
REMARK  152  A    between atoms: _372  and  _375
REMARK  153  A    between atoms: _375  and  _376
REMARK  154  A    between atoms: _379  and  _381
REMARK  155  A    between atoms: _381  and  _382
REMARK  156  A    between atoms: _381  and  _384
REMARK  157  A    between atoms: _384  and  _385
REMARK  158  A    between atoms: _388  and  _390
REMARK  159  A    between atoms: _390  and  _391
REMARK  160  A    between atoms: _390  and  _393
REMARK  161  A    between atoms: _393  and  _394
REMARK  162  A    between atoms: _397  and  _399
REMARK  163  A    between atoms: _399  and  _400
REMARK  164  A    between atoms: _399  and  _402
REMARK  165  A    between atoms: _402  and  _403
REMARK  166  A    between atoms: _406  and  _408
REMARK  167  A    between atoms: _408  and  _409
REMARK  168  A    between atoms: _408  and  _411
REMARK  169  A    between atoms: _411  and  _412
REMARK  170  A    between atoms: _415  and  _417
REMARK  171  A    between atoms: _417  and  _418
REMARK  172  A    between atoms: _420  and  _422
REMARK  173  A    between atoms: _422  and  _423
REMARK  174  A    between atoms: _425  and  _427
REMARK  175  A    between atoms: _427  and  _428
REMARK  176  A    between atoms: _427  and  _430
REMARK  177  A    between atoms: _430  and  _431
REMARK  178  A    between atoms: _434  and  _436
REMARK  179  A    between atoms: _436  and  _437
REMARK  180  A    between atoms: _439  and  _441
REMARK  181  A    between atoms: _441  and  _442
REMARK  182  A    between atoms: _444  and  _446
REMARK  183  A    between atoms: _446  and  _447
REMARK  184  A    between atoms: _446  and  _449
REMARK  185  A    between atoms: _449  and  _450
REMARK  186  A    between atoms: _456  and  _458
REMARK  187  A    between atoms: _458  and  _459
REMARK  188  A    between atoms: _458  and  _461
REMARK  189  A    between atoms: _461  and  _462
REMARK  190  A    between atoms: _465  and  _467
REMARK  191  A    between atoms: _467  and  _468
REMARK  192  A    between atoms: _467  and  _470
REMARK  193  A    between atoms: _470  and  _471
REMARK  194  A    between atoms: _474  and  _476
REMARK  195  A    between atoms: _476  and  _477
REMARK  196  A    between atoms: _476  and  _479
REMARK  197  A    between atoms: _479  and  _480
REMARK  198  A    between atoms: _484  and  _485
REMARK  199  A    between atoms: _490  and  _492
REMARK  200  A    between atoms: _492  and  _493
REMARK  201  A    between atoms: _492  and  _495
REMARK  202  A    between atoms: _495  and  _496
REMARK  203  A    between atoms: _499  and  _501
REMARK  204  A    between atoms: _501  and  _502
REMARK  205  A    between atoms: _501  and  _504
REMARK  206  A    between atoms: _504  and  _505
REMARK  207  A    between atoms: _510  and  _512
REMARK  208  A    between atoms: _512  and  _513
REMARK  209  A    between atoms: _512  and  _515
REMARK  210  A    between atoms: _518  and  _520
REMARK  211  A    between atoms: _520  and  _521
REMARK  212  A    between atoms: _520  and  _523
REMARK  213  A    between atoms: _523  and  _524
REMARK  214  A    between atoms: _527  and  _529
REMARK  215  A    between atoms: _529  and  _530
REMARK  216  A    between atoms: _532  and  _534
REMARK  217  A    between atoms: _534  and  _535
REMARK  218  A    between atoms: _534  and  _537
REMARK  219  A    between atoms: _537  and  _538
REMARK  220  A    between atoms: _538  and  _539
REMARK  221  A    between atoms: _539  and  _540
REMARK                            x       y       z     vdW  Elec       q    Type
REMARK                         _______ _______ _______ _____ _____    ______ ____
ROOT
ATOM      1  O   HOH     1       2.758  17.129  16.314  0.00  0.00    +0.000 OA
ENDROOT
TORSDOF 0
REMARK  Name = ../refined-set-2016/2o4n/2o4n_pocket.pdb
REMARK  221 active torsions:
REMARK  status: ('A' for Active; 'I' for Inactive)
REMARK    1  A    between atoms: _1  and  _3
REMARK    2  A    between atoms: _3  and  _4
REMARK    3  A    between atoms: _3  and  _6
REMARK    4  A    between atoms: _6  and  _7
REMARK    5  A    between atoms: _7  and  _8
REMARK    6  A    between atoms: _8  and  _9
REMARK    7  A    between atoms: _18  and  _20
REMARK    8  A    between atoms: _20  and  _21
REMARK    9  A    between atoms: _20  and  _23
REMARK   10  A    between atoms: _23  and  _24
REMARK   11  A    between atoms: _27  and  _29
REMARK   12  A    between atoms: _29  and  _30
REMARK   13  A    between atoms: _29  and  _32
REMARK   14  A    between atoms: _32  and  _33
REMARK   15  A    between atoms: _36  and  _38
REMARK   16  A    between atoms: _38  and  _39
REMARK   17  A    between atoms: _38  and  _41
REMARK   18  A    between atoms: _41  and  _42
REMARK   19  A    between atoms: _45  and  _47
REMARK   20  A    between atoms: _47  and  _48
REMARK   21  A    between atoms: _47  and  _50
REMARK   22  A    between atoms: _50  and  _51
REMARK   23  A    between atoms: _54  and  _56
REMARK   24  A    between atoms: _56  and  _57
REMARK   25  A    between atoms: _56  and  _59
REMARK   26  A    between atoms: _59  and  _60
REMARK   27  A    between atoms: _63  and  _65
REMARK   28  A    between atoms: _65  and  _66
REMARK   29  A    between atoms: _68  and  _70
REMARK   30  A    between atoms: _70  and  _71
REMARK   31  A    between atoms: _74  and  _76
REMARK   32  A    between atoms: _76  and  _77
REMARK   33  A    between atoms: _76  and  _79
REMARK   34  A    between atoms: _79  and  _80
REMARK   35  A    between atoms: _83  and  _85
REMARK   36  A    between atoms: _85  and  _86
REMARK   37  A    between atoms: _85  and  _88
REMARK   38  A    between atoms: _88  and  _89
REMARK   39  A    between atoms: _92  and  _94
REMARK   40  A    between atoms: _94  and  _95
REMARK   41  A    between atoms: _94  and  _97
REMARK   42  A    between atoms: _97  and  _98
REMARK   43  A    between atoms: _101  and  _103
REMARK   44  A    between atoms: _103  and  _104
REMARK   45  A    between atoms: _103  and  _106
REMARK   46  A    between atoms: _106  and  _107
REMARK   47  A    between atoms: _110  and  _112
REMARK   48  A    between atoms: _112  and  _113
REMARK   49  A    between atoms: _112  and  _115
REMARK   50  A    between atoms: _115  and  _116
REMARK   51  A    between atoms: _119  and  _121
REMARK   52  A    between atoms: _121  and  _122
REMARK   53  A    between atoms: _121  and  _124
REMARK   54  A    between atoms: _124  and  _125
REMARK   55  A    between atoms: _125  and  _126
REMARK   56  A    between atoms: _128  and  _130
REMARK   57  A    between atoms: _130  and  _131
REMARK   58  A    between atoms: _130  and  _133
REMARK   59  A    between atoms: _133  and  _134
REMARK   60  A    between atoms: _137  and  _139
REMARK   61  A    between atoms: _139  and  _140
REMARK   62  A    between atoms: _142  and  _144
REMARK   63  A    between atoms: _144  and  _145
REMARK   64  A    between atoms: _147  and  _149
REMARK   65  A    between atoms: _149  and  _150
REMARK   66  A    between atoms: _149  and  _152
REMARK   67  A    between atoms: _152  and  _153
REMARK   68  A    between atoms: _156  and  _158
REMARK   69  A    between atoms: _158  and  _159
REMARK   70  A    between atoms: _161  and  _163
REMARK   71  A    between atoms: _163  and  _164
REMARK   72  A    between atoms: _166  and  _168
REMARK   73  A    between atoms: _168  and  _169
REMARK   74  A    between atoms: _168  and  _171
REMARK   75  A    between atoms: _171  and  _172
REMARK   76  A    between atoms: _178  and  _180
REMARK   77  A    between atoms: _180  and  _181
REMARK   78  A    between atoms: _180  and  _183
REMARK   79  A    between atoms: _183  and  _184
REMARK   80  A    between atoms: _187  and  _189
REMARK   81  A    between atoms: _189  and  _190
REMARK   82  A    between atoms: _189  and  _192
REMARK   83  A    between atoms: _195  and  _197
REMARK   84  A    between atoms: _197  and  _198
REMARK   85  A    between atoms: _197  and  _200
REMARK   86  A    between atoms: _200  and  _201
REMARK   87  A    between atoms: _204  and  _206
REMARK   88  A    between atoms: _206  and  _207
REMARK   89  A    between atoms: _206  and  _209
REMARK   90  A    between atoms: _209  and  _210
REMARK   91  A    between atoms: _214  and  _215
REMARK   92  A    between atoms: _220  and  _222
REMARK   93  A    between atoms: _222  and  _223
REMARK   94  A    between atoms: _222  and  _225
REMARK   95  A    between atoms: _225  and  _226
REMARK   96  A    between atoms: _229  and  _231
REMARK   97  A    between atoms: _231  and  _232
REMARK   98  A    between atoms: _231  and  _234
REMARK   99  A    between atoms: _234  and  _235
REMARK  100  A    between atoms: _240  and  _242
REMARK  101  A    between atoms: _242  and  _243
REMARK  102  A    between atoms: _242  and  _245
REMARK  103  A    between atoms: _248  and  _250
REMARK  104  A    between atoms: _250  and  _251
REMARK  105  A    between atoms: _250  and  _253
REMARK  106  A    between atoms: _253  and  _254
REMARK  107  A    between atoms: _257  and  _259
REMARK  108  A    between atoms: _259  and  _260
REMARK  109  A    between atoms: _262  and  _264
REMARK  110  A    between atoms: _264  and  _265
REMARK  111  A    between atoms: _264  and  _267
REMARK  112  A    between atoms: _267  and  _268
REMARK  113  A    between atoms: _268  and  _269
REMARK  114  A    between atoms: _269  and  _270
REMARK  115  A    between atoms: _279  and  _281
REMARK  116  A    between atoms: _281  and  _282
REMARK  117  A    between atoms: _281  and  _284
REMARK  118  A    between atoms: _284  and  _285
REMARK  119  A    between atoms: _290  and  _292
REMARK  120  A    between atoms: _292  and  _293
REMARK  121  A    between atoms: _292  and  _295
REMARK  122  A    between atoms: _295  and  _296
REMARK  123  A    between atoms: _296  and  _297
REMARK  124  A    between atoms: _297  and  _298
REMARK  125  A    between atoms: _308  and  _309
REMARK  126  A    between atoms: _314  and  _316
REMARK  127  A    between atoms: _316  and  _317
REMARK  128  A    between atoms: _316  and  _319
REMARK  129  A    between atoms: _319  and  _320
REMARK  130  A    between atoms: _323  and  _325
REMARK  131  A    between atoms: _325  and  _326
REMARK  132  A    between atoms: _325  and  _328
REMARK  133  A    between atoms: _328  and  _329
REMARK  134  A    between atoms: _332  and  _334
REMARK  135  A    between atoms: _334  and  _335
REMARK  136  A    between atoms: _334  and  _337
REMARK  137  A    between atoms: _337  and  _338
REMARK  138  A    between atoms: _341  and  _343
REMARK  139  A    between atoms: _343  and  _344
REMARK  140  A    between atoms: _343  and  _346
REMARK  141  A    between atoms: _346  and  _347
REMARK  142  A    between atoms: _350  and  _352
REMARK  143  A    between atoms: _352  and  _353
REMARK  144  A    between atoms: _352  and  _355
REMARK  145  A    between atoms: _355  and  _356
REMARK  146  A    between atoms: _359  and  _361
REMARK  147  A    between atoms: _361  and  _362
REMARK  148  A    between atoms: _364  and  _366
REMARK  149  A    between atoms: _366  and  _367
REMARK  150  A    between atoms: _370  and  _372
REMARK  151  A    between atoms: _372  and  _373
REMARK  152  A    between atoms: _372  and  _375
REMARK  153  A    between atoms: _375  and  _376
REMARK  154  A    between atoms: _379  and  _381
REMARK  155  A    between atoms: _381  and  _382
REMARK  156  A    between atoms: _381  and  _384
REMARK  157  A    between atoms: _384  and  _385
REMARK  158  A    between atoms: _388  and  _390
REMARK  159  A    between atoms: _390  and  _391
REMARK  160  A    between atoms: _390  and  _393
REMARK  161  A    between atoms: _393  and  _394
REMARK  162  A    between atoms: _397  and  _399
REMARK  163  A    between atoms: _399  and  _400
REMARK  164  A    between atoms: _399  and  _402
REMARK  165  A    between atoms: _402  and  _403
REMARK  166  A    between atoms: _406  and  _408
REMARK  167  A    between atoms: _408  and  _409
REMARK  168  A    between atoms: _408  and  _411
REMARK  169  A    between atoms: _411  and  _412
REMARK  170  A    between atoms: _415  and  _417
REMARK  171  A    between atoms: _417  and  _418
REMARK  172  A    between atoms: _420  and  _422
REMARK  173  A    between atoms: _422  and  _423
REMARK  174  A    between atoms: _425  and  _427
REMARK  175  A    between atoms: _427  and  _428
REMARK  176  A    between atoms: _427  and  _430
REMARK  177  A    between atoms: _430  and  _431
REMARK  178  A    between atoms: _434  and  _436
REMARK  179  A    between atoms: _436  and  _437
REMARK  180  A    between atoms: _439  and  _441
REMARK  181  A    between atoms: _441  and  _442
REMARK  182  A    between atoms: _444  and  _446
REMARK  183  A    between atoms: _446  and  _447
REMARK  184  A    between atoms: _446  and  _449
REMARK  185  A    between atoms: _449  and  _450
REMARK  186  A    between atoms: _456  and  _458
REMARK  187  A    between atoms: _458  and  _459
REMARK  188  A    between atoms: _458  and  _461
REMARK  189  A    between atoms: _461  and  _462
REMARK  190  A    between atoms: _465  and  _467
REMARK  191  A    between atoms: _467  and  _468
REMARK  192  A    between atoms: _467  and  _470
REMARK  193  A    between atoms: _470  and  _471
REMARK  194  A    between atoms: _474  and  _476
REMARK  195  A    between atoms: _476  and  _477
REMARK  196  A    between atoms: _476  and  _479
REMARK  197  A    between atoms: _479  and  _480
REMARK  198  A    between atoms: _484  and  _485
REMARK  199  A    between atoms: _490  and  _492
REMARK  200  A    between atoms: _492  and  _493
REMARK  201  A    between atoms: _492  and  _495
REMARK  202  A    between atoms: _495  and  _496
REMARK  203  A    between atoms: _499  and  _501
REMARK  204  A    between atoms: _501  and  _502
REMARK  205  A    between atoms: _501  and  _504
REMARK  206  A    between atoms: _504  and  _505
REMARK  207  A    between atoms: _510  and  _512
REMARK  208  A    between atoms: _512  and  _513
REMARK  209  A    between atoms: _512  and  _515
REMARK  210  A    between atoms: _518  and  _520
REMARK  211  A    between atoms: _520  and  _521
REMARK  212  A    between atoms: _520  and  _523
REMARK  213  A    between atoms: _523  and  _524
REMARK  214  A    between atoms: _527  and  _529
REMARK  215  A    between atoms: _529  and  _530
REMARK  216  A    between atoms: _532  and  _534
REMARK  217  A    between atoms: _534  and  _535
REMARK  218  A    between atoms: _534  and  _537
REMARK  219  A    between atoms: _537  and  _538
REMARK  220  A    between atoms: _538  and  _539
REMARK  221  A    between atoms: _539  and  _540
REMARK                            x       y       z     vdW  Elec       q    Type
REMARK                         _______ _______ _______ _____ _____    ______ ____
ROOT
ATOM      1  O   HOH     1      21.480  20.995   6.768  0.00  0.00    +0.000 OA
ENDROOT
TORSDOF 0
REMARK  Name = ../refined-set-2016/2o4n/2o4n_pocket.pdb
REMARK  221 active torsions:
REMARK  status: ('A' for Active; 'I' for Inactive)
REMARK    1  A    between atoms: _1  and  _3
REMARK    2  A    between atoms: _3  and  _4
REMARK    3  A    between atoms: _3  and  _6
REMARK    4  A    between atoms: _6  and  _7
REMARK    5  A    between atoms: _7  and  _8
REMARK    6  A    between atoms: _8  and  _9
REMARK    7  A    between atoms: _18  and  _20
REMARK    8  A    between atoms: _20  and  _21
REMARK    9  A    between atoms: _20  and  _23
REMARK   10  A    between atoms: _23  and  _24
REMARK   11  A    between atoms: _27  and  _29
REMARK   12  A    between atoms: _29  and  _30
REMARK   13  A    between atoms: _29  and  _32
REMARK   14  A    between atoms: _32  and  _33
REMARK   15  A    between atoms: _36  and  _38
REMARK   16  A    between atoms: _38  and  _39
REMARK   17  A    between atoms: _38  and  _41
REMARK   18  A    between atoms: _41  and  _42
REMARK   19  A    between atoms: _45  and  _47
REMARK   20  A    between atoms: _47  and  _48
REMARK   21  A    between atoms: _47  and  _50
REMARK   22  A    between atoms: _50  and  _51
REMARK   23  A    between atoms: _54  and  _56
REMARK   24  A    between atoms: _56  and  _57
REMARK   25  A    between atoms: _56  and  _59
REMARK   26  A    between atoms: _59  and  _60
REMARK   27  A    between atoms: _63  and  _65
REMARK   28  A    between atoms: _65  and  _66
REMARK   29  A    between atoms: _68  and  _70
REMARK   30  A    between atoms: _70  and  _71
REMARK   31  A    between atoms: _74  and  _76
REMARK   32  A    between atoms: _76  and  _77
REMARK   33  A    between atoms: _76  and  _79
REMARK   34  A    between atoms: _79  and  _80
REMARK   35  A    between atoms: _83  and  _85
REMARK   36  A    between atoms: _85  and  _86
REMARK   37  A    between atoms: _85  and  _88
REMARK   38  A    between atoms: _88  and  _89
REMARK   39  A    between atoms: _92  and  _94
REMARK   40  A    between atoms: _94  and  _95
REMARK   41  A    between atoms: _94  and  _97
REMARK   42  A    between atoms: _97  and  _98
REMARK   43  A    between atoms: _101  and  _103
REMARK   44  A    between atoms: _103  and  _104
REMARK   45  A    between atoms: _103  and  _106
REMARK   46  A    between atoms: _106  and  _107
REMARK   47  A    between atoms: _110  and  _112
REMARK   48  A    between atoms: _112  and  _113
REMARK   49  A    between atoms: _112  and  _115
REMARK   50  A    between atoms: _115  and  _116
REMARK   51  A    between atoms: _119  and  _121
REMARK   52  A    between atoms: _121  and  _122
REMARK   53  A    between atoms: _121  and  _124
REMARK   54  A    between atoms: _124  and  _125
REMARK   55  A    between atoms: _125  and  _126
REMARK   56  A    between atoms: _128  and  _130
REMARK   57  A    between atoms: _130  and  _131
REMARK   58  A    between atoms: _130  and  _133
REMARK   59  A    between atoms: _133  and  _134
REMARK   60  A    between atoms: _137  and  _139
REMARK   61  A    between atoms: _139  and  _140
REMARK   62  A    between atoms: _142  and  _144
REMARK   63  A    between atoms: _144  and  _145
REMARK   64  A    between atoms: _147  and  _149
REMARK   65  A    between atoms: _149  and  _150
REMARK   66  A    between atoms: _149  and  _152
REMARK   67  A    between atoms: _152  and  _153
REMARK   68  A    between atoms: _156  and  _158
REMARK   69  A    between atoms: _158  and  _159
REMARK   70  A    between atoms: _161  and  _163
REMARK   71  A    between atoms: _163  and  _164
REMARK   72  A    between atoms: _166  and  _168
REMARK   73  A    between atoms: _168  and  _169
REMARK   74  A    between atoms: _168  and  _171
REMARK   75  A    between atoms: _171  and  _172
REMARK   76  A    between atoms: _178  and  _180
REMARK   77  A    between atoms: _180  and  _181
REMARK   78  A    between atoms: _180  and  _183
REMARK   79  A    between atoms: _183  and  _184
REMARK   80  A    between atoms: _187  and  _189
REMARK   81  A    between atoms: _189  and  _190
REMARK   82  A    between atoms: _189  and  _192
REMARK   83  A    between atoms: _195  and  _197
REMARK   84  A    between atoms: _197  and  _198
REMARK   85  A    between atoms: _197  and  _200
REMARK   86  A    between atoms: _200  and  _201
REMARK   87  A    between atoms: _204  and  _206
REMARK   88  A    between atoms: _206  and  _207
REMARK   89  A    between atoms: _206  and  _209
REMARK   90  A    between atoms: _209  and  _210
REMARK   91  A    between atoms: _214  and  _215
REMARK   92  A    between atoms: _220  and  _222
REMARK   93  A    between atoms: _222  and  _223
REMARK   94  A    between atoms: _222  and  _225
REMARK   95  A    between atoms: _225  and  _226
REMARK   96  A    between atoms: _229  and  _231
REMARK   97  A    between atoms: _231  and  _232
REMARK   98  A    between atoms: _231  and  _234
REMARK   99  A    between atoms: _234  and  _235
REMARK  100  A    between atoms: _240  and  _242
REMARK  101  A    between atoms: _242  and  _243
REMARK  102  A    between atoms: _242  and  _245
REMARK  103  A    between atoms: _248  and  _250
REMARK  104  A    between atoms: _250  and  _251
REMARK  105  A    between atoms: _250  and  _253
REMARK  106  A    between atoms: _253  and  _254
REMARK  107  A    between atoms: _257  and  _259
REMARK  108  A    between atoms: _259  and  _260
REMARK  109  A    between atoms: _262  and  _264
REMARK  110  A    between atoms: _264  and  _265
REMARK  111  A    between atoms: _264  and  _267
REMARK  112  A    between atoms: _267  and  _268
REMARK  113  A    between atoms: _268  and  _269
REMARK  114  A    between atoms: _269  and  _270
REMARK  115  A    between atoms: _279  and  _281
REMARK  116  A    between atoms: _281  and  _282
REMARK  117  A    between atoms: _281  and  _284
REMARK  118  A    between atoms: _284  and  _285
REMARK  119  A    between atoms: _290  and  _292
REMARK  120  A    between atoms: _292  and  _293
REMARK  121  A    between atoms: _292  and  _295
REMARK  122  A    between atoms: _295  and  _296
REMARK  123  A    between atoms: _296  and  _297
REMARK  124  A    between atoms: _297  and  _298
REMARK  125  A    between atoms: _308  and  _309
REMARK  126  A    between atoms: _314  and  _316
REMARK  127  A    between atoms: _316  and  _317
REMARK  128  A    between atoms: _316  and  _319
REMARK  129  A    between atoms: _319  and  _320
REMARK  130  A    between atoms: _323  and  _325
REMARK  131  A    between atoms: _325  and  _326
REMARK  132  A    between atoms: _325  and  _328
REMARK  133  A    between atoms: _328  and  _329
REMARK  134  A    between atoms: _332  and  _334
REMARK  135  A    between atoms: _334  and  _335
REMARK  136  A    between atoms: _334  and  _337
REMARK  137  A    between atoms: _337  and  _338
REMARK  138  A    between atoms: _341  and  _343
REMARK  139  A    between atoms: _343  and  _344
REMARK  140  A    between atoms: _343  and  _346
REMARK  141  A    between atoms: _346  and  _347
REMARK  142  A    between atoms: _350  and  _352
REMARK  143  A    between atoms: _352  and  _353
REMARK  144  A    between atoms: _352  and  _355
REMARK  145  A    between atoms: _355  and  _356
REMARK  146  A    between atoms: _359  and  _361
REMARK  147  A    between atoms: _361  and  _362
REMARK  148  A    between atoms: _364  and  _366
REMARK  149  A    between atoms: _366  and  _367
REMARK  150  A    between atoms: _370  and  _372
REMARK  151  A    between atoms: _372  and  _373
REMARK  152  A    between atoms: _372  and  _375
REMARK  153  A    between atoms: _375  and  _376
REMARK  154  A    between atoms: _379  and  _381
REMARK  155  A    between atoms: _381  and  _382
REMARK  156  A    between atoms: _381  and  _384
REMARK  157  A    between atoms: _384  and  _385
REMARK  158  A    between atoms: _388  and  _390
REMARK  159  A    between atoms: _390  and  _391
REMARK  160  A    between atoms: _390  and  _393
REMARK  161  A    between atoms: _393  and  _394
REMARK  162  A    between atoms: _397  and  _399
REMARK  163  A    between atoms: _399  and  _400
REMARK  164  A    between atoms: _399  and  _402
REMARK  165  A    between atoms: _402  and  _403
REMARK  166  A    between atoms: _406  and  _408
REMARK  167  A    between atoms: _408  and  _409
REMARK  168  A    between atoms: _408  and  _411
REMARK  169  A    between atoms: _411  and  _412
REMARK  170  A    between atoms: _415  and  _417
REMARK  171  A    between atoms: _417  and  _418
REMARK  172  A    between atoms: _420  and  _422
REMARK  173  A    between atoms: _422  and  _423
REMARK  174  A    between atoms: _425  and  _427
REMARK  175  A    between atoms: _427  and  _428
REMARK  176  A    between atoms: _427  and  _430
REMARK  177  A    between atoms: _430  and  _431
REMARK  178  A    between atoms: _434  and  _436
REMARK  179  A    between atoms: _436  and  _437
REMARK  180  A    between atoms: _439  and  _441
REMARK  181  A    between atoms: _441  and  _442
REMARK  182  A    between atoms: _444  and  _446
REMARK  183  A    between atoms: _446  and  _447
REMARK  184  A    between atoms: _446  and  _449
REMARK  185  A    between atoms: _449  and  _450
REMARK  186  A    between atoms: _456  and  _458
REMARK  187  A    between atoms: _458  and  _459
REMARK  188  A    between atoms: _458  and  _461
REMARK  189  A    between atoms: _461  and  _462
REMARK  190  A    between atoms: _465  and  _467
REMARK  191  A    between atoms: _467  and  _468
REMARK  192  A    between atoms: _467  and  _470
REMARK  193  A    between atoms: _470  and  _471
REMARK  194  A    between atoms: _474  and  _476
REMARK  195  A    between atoms: _476  and  _477
REMARK  196  A    between atoms: _476  and  _479
REMARK  197  A    between atoms: _479  and  _480
REMARK  198  A    between atoms: _484  and  _485
REMARK  199  A    between atoms: _490  and  _492
REMARK  200  A    between atoms: _492  and  _493
REMARK  201  A    between atoms: _492  and  _495
REMARK  202  A    between atoms: _495  and  _496
REMARK  203  A    between atoms: _499  and  _501
REMARK  204  A    between atoms: _501  and  _502
REMARK  205  A    between atoms: _501  and  _504
REMARK  206  A    between atoms: _504  and  _505
REMARK  207  A    between atoms: _510  and  _512
REMARK  208  A    between atoms: _512  and  _513
REMARK  209  A    between atoms: _512  and  _515
REMARK  210  A    between atoms: _518  and  _520
REMARK  211  A    between atoms: _520  and  _521
REMARK  212  A    between atoms: _520  and  _523
REMARK  213  A    between atoms: _523  and  _524
REMARK  214  A    between atoms: _527  and  _529
REMARK  215  A    between atoms: _529  and  _530
REMARK  216  A    between atoms: _532  and  _534
REMARK  217  A    between atoms: _534  and  _535
REMARK  218  A    between atoms: _534  and  _537
REMARK  219  A    between atoms: _537  and  _538
REMARK  220  A    between atoms: _538  and  _539
REMARK  221  A    between atoms: _539  and  _540
REMARK                            x       y       z     vdW  Elec       q    Type
REMARK                         _______ _______ _______ _____ _____    ______ ____
ROOT
ATOM      1  O   HOH     1      21.411  27.363  13.074  0.00  0.00    +0.000 OA
ENDROOT
TORSDOF 0
REMARK  Name = ../refined-set-2016/2o4n/2o4n_pocket.pdb
REMARK  221 active torsions:
REMARK  status: ('A' for Active; 'I' for Inactive)
REMARK    1  A    between atoms: _1  and  _3
REMARK    2  A    between atoms: _3  and  _4
REMARK    3  A    between atoms: _3  and  _6
REMARK    4  A    between atoms: _6  and  _7
REMARK    5  A    between atoms: _7  and  _8
REMARK    6  A    between atoms: _8  and  _9
REMARK    7  A    between atoms: _18  and  _20
REMARK    8  A    between atoms: _20  and  _21
REMARK    9  A    between atoms: _20  and  _23
REMARK   10  A    between atoms: _23  and  _24
REMARK   11  A    between atoms: _27  and  _29
REMARK   12  A    between atoms: _29  and  _30
REMARK   13  A    between atoms: _29  and  _32
REMARK   14  A    between atoms: _32  and  _33
REMARK   15  A    between atoms: _36  and  _38
REMARK   16  A    between atoms: _38  and  _39
REMARK   17  A    between atoms: _38  and  _41
REMARK   18  A    between atoms: _41  and  _42
REMARK   19  A    between atoms: _45  and  _47
REMARK   20  A    between atoms: _47  and  _48
REMARK   21  A    between atoms: _47  and  _50
REMARK   22  A    between atoms: _50  and  _51
REMARK   23  A    between atoms: _54  and  _56
REMARK   24  A    between atoms: _56  and  _57
REMARK   25  A    between atoms: _56  and  _59
REMARK   26  A    between atoms: _59  and  _60
REMARK   27  A    between atoms: _63  and  _65
REMARK   28  A    between atoms: _65  and  _66
REMARK   29  A    between atoms: _68  and  _70
REMARK   30  A    between atoms: _70  and  _71
REMARK   31  A    between atoms: _74  and  _76
REMARK   32  A    between atoms: _76  and  _77
REMARK   33  A    between atoms: _76  and  _79
REMARK   34  A    between atoms: _79  and  _80
REMARK   35  A    between atoms: _83  and  _85
REMARK   36  A    between atoms: _85  and  _86
REMARK   37  A    between atoms: _85  and  _88
REMARK   38  A    between atoms: _88  and  _89
REMARK   39  A    between atoms: _92  and  _94
REMARK   40  A    between atoms: _94  and  _95
REMARK   41  A    between atoms: _94  and  _97
REMARK   42  A    between atoms: _97  and  _98
REMARK   43  A    between atoms: _101  and  _103
REMARK   44  A    between atoms: _103  and  _104
REMARK   45  A    between atoms: _103  and  _106
REMARK   46  A    between atoms: _106  and  _107
REMARK   47  A    between atoms: _110  and  _112
REMARK   48  A    between atoms: _112  and  _113
REMARK   49  A    between atoms: _112  and  _115
REMARK   50  A    between atoms: _115  and  _116
REMARK   51  A    between atoms: _119  and  _121
REMARK   52  A    between atoms: _121  and  _122
REMARK   53  A    between atoms: _121  and  _124
REMARK   54  A    between atoms: _124  and  _125
REMARK   55  A    between atoms: _125  and  _126
REMARK   56  A    between atoms: _128  and  _130
REMARK   57  A    between atoms: _130  and  _131
REMARK   58  A    between atoms: _130  and  _133
REMARK   59  A    between atoms: _133  and  _134
REMARK   60  A    between atoms: _137  and  _139
REMARK   61  A    between atoms: _139  and  _140
REMARK   62  A    between atoms: _142  and  _144
REMARK   63  A    between atoms: _144  and  _145
REMARK   64  A    between atoms: _147  and  _149
REMARK   65  A    between atoms: _149  and  _150
REMARK   66  A    between atoms: _149  and  _152
REMARK   67  A    between atoms: _152  and  _153
REMARK   68  A    between atoms: _156  and  _158
REMARK   69  A    between atoms: _158  and  _159
REMARK   70  A    between atoms: _161  and  _163
REMARK   71  A    between atoms: _163  and  _164
REMARK   72  A    between atoms: _166  and  _168
REMARK   73  A    between atoms: _168  and  _169
REMARK   74  A    between atoms: _168  and  _171
REMARK   75  A    between atoms: _171  and  _172
REMARK   76  A    between atoms: _178  and  _180
REMARK   77  A    between atoms: _180  and  _181
REMARK   78  A    between atoms: _180  and  _183
REMARK   79  A    between atoms: _183  and  _184
REMARK   80  A    between atoms: _187  and  _189
REMARK   81  A    between atoms: _189  and  _190
REMARK   82  A    between atoms: _189  and  _192
REMARK   83  A    between atoms: _195  and  _197
REMARK   84  A    between atoms: _197  and  _198
REMARK   85  A    between atoms: _197  and  _200
REMARK   86  A    between atoms: _200  and  _201
REMARK   87  A    between atoms: _204  and  _206
REMARK   88  A    between atoms: _206  and  _207
REMARK   89  A    between atoms: _206  and  _209
REMARK   90  A    between atoms: _209  and  _210
REMARK   91  A    between atoms: _214  and  _215
REMARK   92  A    between atoms: _220  and  _222
REMARK   93  A    between atoms: _222  and  _223
REMARK   94  A    between atoms: _222  and  _225
REMARK   95  A    between atoms: _225  and  _226
REMARK   96  A    between atoms: _229  and  _231
REMARK   97  A    between atoms: _231  and  _232
REMARK   98  A    between atoms: _231  and  _234
REMARK   99  A    between atoms: _234  and  _235
REMARK  100  A    between atoms: _240  and  _242
REMARK  101  A    between atoms: _242  and  _243
REMARK  102  A    between atoms: _242  and  _245
REMARK  103  A    between atoms: _248  and  _250
REMARK  104  A    between atoms: _250  and  _251
REMARK  105  A    between atoms: _250  and  _253
REMARK  106  A    between atoms: _253  and  _254
REMARK  107  A    between atoms: _257  and  _259
REMARK  108  A    between atoms: _259  and  _260
REMARK  109  A    between atoms: _262  and  _264
REMARK  110  A    between atoms: _264  and  _265
REMARK  111  A    between atoms: _264  and  _267
REMARK  112  A    between atoms: _267  and  _268
REMARK  113  A    between atoms: _268  and  _269
REMARK  114  A    between atoms: _269  and  _270
REMARK  115  A    between atoms: _279  and  _281
REMARK  116  A    between atoms: _281  and  _282
REMARK  117  A    between atoms: _281  and  _284
REMARK  118  A    between atoms: _284  and  _285
REMARK  119  A    between atoms: _290  and  _292
REMARK  120  A    between atoms: _292  and  _293
REMARK  121  A    between atoms: _292  and  _295
REMARK  122  A    between atoms: _295  and  _296
REMARK  123  A    between atoms: _296  and  _297
REMARK  124  A    between atoms: _297  and  _298
REMARK  125  A    between atoms: _308  and  _309
REMARK  126  A    between atoms: _314  and  _316
REMARK  127  A    between atoms: _316  and  _317
REMARK  128  A    between atoms: _316  and  _319
REMARK  129  A    between atoms: _319  and  _320
REMARK  130  A    between atoms: _323  and  _325
REMARK  131  A    between atoms: _325  and  _326
REMARK  132  A    between atoms: _325  and  _328
REMARK  133  A    between atoms: _328  and  _329
REMARK  134  A    between atoms: _332  and  _334
REMARK  135  A    between atoms: _334  and  _335
REMARK  136  A    between atoms: _334  and  _337
REMARK  137  A    between atoms: _337  and  _338
REMARK  138  A    between atoms: _341  and  _343
REMARK  139  A    between atoms: _343  and  _344
REMARK  140  A    between atoms: _343  and  _346
REMARK  141  A    between atoms: _346  and  _347
REMARK  142  A    between atoms: _350  and  _352
REMARK  143  A    between atoms: _352  and  _353
REMARK  144  A    between atoms: _352  and  _355
REMARK  145  A    between atoms: _355  and  _356
REMARK  146  A    between atoms: _359  and  _361
REMARK  147  A    between atoms: _361  and  _362
REMARK  148  A    between atoms: _364  and  _366
REMARK  149  A    between atoms: _366  and  _367
REMARK  150  A    between atoms: _370  and  _372
REMARK  151  A    between atoms: _372  and  _373
REMARK  152  A    between atoms: _372  and  _375
REMARK  153  A    between atoms: _375  and  _376
REMARK  154  A    between atoms: _379  and  _381
REMARK  155  A    between atoms: _381  and  _382
REMARK  156  A    between atoms: _381  and  _384
REMARK  157  A    between atoms: _384  and  _385
REMARK  158  A    between atoms: _388  and  _390
REMARK  159  A    between atoms: _390  and  _391
REMARK  160  A    between atoms: _390  and  _393
REMARK  161  A    between atoms: _393  and  _394
REMARK  162  A    between atoms: _397  and  _399
REMARK  163  A    between atoms: _399  and  _400
REMARK  164  A    between atoms: _399  and  _402
REMARK  165  A    between atoms: _402  and  _403
REMARK  166  A    between atoms: _406  and  _408
REMARK  167  A    between atoms: _408  and  _409
REMARK  168  A    between atoms: _408  and  _411
REMARK  169  A    between atoms: _411  and  _412
REMARK  170  A    between atoms: _415  and  _417
REMARK  171  A    between atoms: _417  and  _418
REMARK  172  A    between atoms: _420  and  _422
REMARK  173  A    between atoms: _422  and  _423
REMARK  174  A    between atoms: _425  and  _427
REMARK  175  A    between atoms: _427  and  _428
REMARK  176  A    between atoms: _427  and  _430
REMARK  177  A    between atoms: _430  and  _431
REMARK  178  A    between atoms: _434  and  _436
REMARK  179  A    between atoms: _436  and  _437
REMARK  180  A    between atoms: _439  and  _441
REMARK  181  A    between atoms: _441  and  _442
REMARK  182  A    between atoms: _444  and  _446
REMARK  183  A    between atoms: _446  and  _447
REMARK  184  A    between atoms: _446  and  _449
REMARK  185  A    between atoms: _449  and  _450
REMARK  186  A    between atoms: _456  and  _458
REMARK  187  A    between atoms: _458  and  _459
REMARK  188  A    between atoms: _458  and  _461
REMARK  189  A    between atoms: _461  and  _462
REMARK  190  A    between atoms: _465  and  _467
REMARK  191  A    between atoms: _467  and  _468
REMARK  192  A    between atoms: _467  and  _470
REMARK  193  A    between atoms: _470  and  _471
REMARK  194  A    between atoms: _474  and  _476
REMARK  195  A    between atoms: _476  and  _477
REMARK  196  A    between atoms: _476  and  _479
REMARK  197  A    between atoms: _479  and  _480
REMARK  198  A    between atoms: _484  and  _485
REMARK  199  A    between atoms: _490  and  _492
REMARK  200  A    between atoms: _492  and  _493
REMARK  201  A    between atoms: _492  and  _495
REMARK  202  A    between atoms: _495  and  _496
REMARK  203  A    between atoms: _499  and  _501
REMARK  204  A    between atoms: _501  and  _502
REMARK  205  A    between atoms: _501  and  _504
REMARK  206  A    between atoms: _504  and  _505
REMARK  207  A    between atoms: _510  and  _512
REMARK  208  A    between atoms: _512  and  _513
REMARK  209  A    between atoms: _512  and  _515
REMARK  210  A    between atoms: _518  and  _520
REMARK  211  A    between atoms: _520  and  _521
REMARK  212  A    between atoms: _520  and  _523
REMARK  213  A    between atoms: _523  and  _524
REMARK  214  A    between atoms: _527  and  _529
REMARK  215  A    between atoms: _529  and  _530
REMARK  216  A    between atoms: _532  and  _534
REMARK  217  A    between atoms: _534  and  _535
REMARK  218  A    between atoms: _534  and  _537
REMARK  219  A    between atoms: _537  and  _538
REMARK  220  A    between atoms: _538  and  _539
REMARK  221  A    between atoms: _539  and  _540
REMARK                            x       y       z     vdW  Elec       q    Type
REMARK                         _______ _______ _______ _____ _____    ______ ____
ROOT
ATOM      1  O   HOH     1      10.133  12.625  21.454  0.00  0.00    +0.000 OA
ENDROOT
TORSDOF 0
REMARK  Name = ../refined-set-2016/2o4n/2o4n_pocket.pdb
REMARK  221 active torsions:
REMARK  status: ('A' for Active; 'I' for Inactive)
REMARK    1  A    between atoms: _1  and  _3
REMARK    2  A    between atoms: _3  and  _4
REMARK    3  A    between atoms: _3  and  _6
REMARK    4  A    between atoms: _6  and  _7
REMARK    5  A    between atoms: _7  and  _8
REMARK    6  A    between atoms: _8  and  _9
REMARK    7  A    between atoms: _18  and  _20
REMARK    8  A    between atoms: _20  and  _21
REMARK    9  A    between atoms: _20  and  _23
REMARK   10  A    between atoms: _23  and  _24
REMARK   11  A    between atoms: _27  and  _29
REMARK   12  A    between atoms: _29  and  _30
REMARK   13  A    between atoms: _29  and  _32
REMARK   14  A    between atoms: _32  and  _33
REMARK   15  A    between atoms: _36  and  _38
REMARK   16  A    between atoms: _38  and  _39
REMARK   17  A    between atoms: _38  and  _41
REMARK   18  A    between atoms: _41  and  _42
REMARK   19  A    between atoms: _45  and  _47
REMARK   20  A    between atoms: _47  and  _48
REMARK   21  A    between atoms: _47  and  _50
REMARK   22  A    between atoms: _50  and  _51
REMARK   23  A    between atoms: _54  and  _56
REMARK   24  A    between atoms: _56  and  _57
REMARK   25  A    between atoms: _56  and  _59
REMARK   26  A    between atoms: _59  and  _60
REMARK   27  A    between atoms: _63  and  _65
REMARK   28  A    between atoms: _65  and  _66
REMARK   29  A    between atoms: _68  and  _70
REMARK   30  A    between atoms: _70  and  _71
REMARK   31  A    between atoms: _74  and  _76
REMARK   32  A    between atoms: _76  and  _77
REMARK   33  A    between atoms: _76  and  _79
REMARK   34  A    between atoms: _79  and  _80
REMARK   35  A    between atoms: _83  and  _85
REMARK   36  A    between atoms: _85  and  _86
REMARK   37  A    between atoms: _85  and  _88
REMARK   38  A    between atoms: _88  and  _89
REMARK   39  A    between atoms: _92  and  _94
REMARK   40  A    between atoms: _94  and  _95
REMARK   41  A    between atoms: _94  and  _97
REMARK   42  A    between atoms: _97  and  _98
REMARK   43  A    between atoms: _101  and  _103
REMARK   44  A    between atoms: _103  and  _104
REMARK   45  A    between atoms: _103  and  _106
REMARK   46  A    between atoms: _106  and  _107
REMARK   47  A    between atoms: _110  and  _112
REMARK   48  A    between atoms: _112  and  _113
REMARK   49  A    between atoms: _112  and  _115
REMARK   50  A    between atoms: _115  and  _116
REMARK   51  A    between atoms: _119  and  _121
REMARK   52  A    between atoms: _121  and  _122
REMARK   53  A    between atoms: _121  and  _124
REMARK   54  A    between atoms: _124  and  _125
REMARK   55  A    between atoms: _125  and  _126
REMARK   56  A    between atoms: _128  and  _130
REMARK   57  A    between atoms: _130  and  _131
REMARK   58  A    between atoms: _130  and  _133
REMARK   59  A    between atoms: _133  and  _134
REMARK   60  A    between atoms: _137  and  _139
REMARK   61  A    between atoms: _139  and  _140
REMARK   62  A    between atoms: _142  and  _144
REMARK   63  A    between atoms: _144  and  _145
REMARK   64  A    between atoms: _147  and  _149
REMARK   65  A    between atoms: _149  and  _150
REMARK   66  A    between atoms: _149  and  _152
REMARK   67  A    between atoms: _152  and  _153
REMARK   68  A    between atoms: _156  and  _158
REMARK   69  A    between atoms: _158  and  _159
REMARK   70  A    between atoms: _161  and  _163
REMARK   71  A    between atoms: _163  and  _164
REMARK   72  A    between atoms: _166  and  _168
REMARK   73  A    between atoms: _168  and  _169
REMARK   74  A    between atoms: _168  and  _171
REMARK   75  A    between atoms: _171  and  _172
REMARK   76  A    between atoms: _178  and  _180
REMARK   77  A    between atoms: _180  and  _181
REMARK   78  A    between atoms: _180  and  _183
REMARK   79  A    between atoms: _183  and  _184
REMARK   80  A    between atoms: _187  and  _189
REMARK   81  A    between atoms: _189  and  _190
REMARK   82  A    between atoms: _189  and  _192
REMARK   83  A    between atoms: _195  and  _197
REMARK   84  A    between atoms: _197  and  _198
REMARK   85  A    between atoms: _197  and  _200
REMARK   86  A    between atoms: _200  and  _201
REMARK   87  A    between atoms: _204  and  _206
REMARK   88  A    between atoms: _206  and  _207
REMARK   89  A    between atoms: _206  and  _209
REMARK   90  A    between atoms: _209  and  _210
REMARK   91  A    between atoms: _214  and  _215
REMARK   92  A    between atoms: _220  and  _222
REMARK   93  A    between atoms: _222  and  _223
REMARK   94  A    between atoms: _222  and  _225
REMARK   95  A    between atoms: _225  and  _226
REMARK   96  A    between atoms: _229  and  _231
REMARK   97  A    between atoms: _231  and  _232
REMARK   98  A    between atoms: _231  and  _234
REMARK   99  A    between atoms: _234  and  _235
REMARK  100  A    between atoms: _240  and  _242
REMARK  101  A    between atoms: _242  and  _243
REMARK  102  A    between atoms: _242  and  _245
REMARK  103  A    between atoms: _248  and  _250
REMARK  104  A    between atoms: _250  and  _251
REMARK  105  A    between atoms: _250  and  _253
REMARK  106  A    between atoms: _253  and  _254
REMARK  107  A    between atoms: _257  and  _259
REMARK  108  A    between atoms: _259  and  _260
REMARK  109  A    between atoms: _262  and  _264
REMARK  110  A    between atoms: _264  and  _265
REMARK  111  A    between atoms: _264  and  _267
REMARK  112  A    between atoms: _267  and  _268
REMARK  113  A    between atoms: _268  and  _269
REMARK  114  A    between atoms: _269  and  _270
REMARK  115  A    between atoms: _279  and  _281
REMARK  116  A    between atoms: _281  and  _282
REMARK  117  A    between atoms: _281  and  _284
REMARK  118  A    between atoms: _284  and  _285
REMARK  119  A    between atoms: _290  and  _292
REMARK  120  A    between atoms: _292  and  _293
REMARK  121  A    between atoms: _292  and  _295
REMARK  122  A    between atoms: _295  and  _296
REMARK  123  A    between atoms: _296  and  _297
REMARK  124  A    between atoms: _297  and  _298
REMARK  125  A    between atoms: _308  and  _309
REMARK  126  A    between atoms: _314  and  _316
REMARK  127  A    between atoms: _316  and  _317
REMARK  128  A    between atoms: _316  and  _319
REMARK  129  A    between atoms: _319  and  _320
REMARK  130  A    between atoms: _323  and  _325
REMARK  131  A    between atoms: _325  and  _326
REMARK  132  A    between atoms: _325  and  _328
REMARK  133  A    between atoms: _328  and  _329
REMARK  134  A    between atoms: _332  and  _334
REMARK  135  A    between atoms: _334  and  _335
REMARK  136  A    between atoms: _334  and  _337
REMARK  137  A    between atoms: _337  and  _338
REMARK  138  A    between atoms: _341  and  _343
REMARK  139  A    between atoms: _343  and  _344
REMARK  140  A    between atoms: _343  and  _346
REMARK  141  A    between atoms: _346  and  _347
REMARK  142  A    between atoms: _350  and  _352
REMARK  143  A    between atoms: _352  and  _353
REMARK  144  A    between atoms: _352  and  _355
REMARK  145  A    between atoms: _355  and  _356
REMARK  146  A    between atoms: _359  and  _361
REMARK  147  A    between atoms: _361  and  _362
REMARK  148  A    between atoms: _364  and  _366
REMARK  149  A    between atoms: _366  and  _367
REMARK  150  A    between atoms: _370  and  _372
REMARK  151  A    between atoms: _372  and  _373
REMARK  152  A    between atoms: _372  and  _375
REMARK  153  A    between atoms: _375  and  _376
REMARK  154  A    between atoms: _379  and  _381
REMARK  155  A    between atoms: _381  and  _382
REMARK  156  A    between atoms: _381  and  _384
REMARK  157  A    between atoms: _384  and  _385
REMARK  158  A    between atoms: _388  and  _390
REMARK  159  A    between atoms: _390  and  _391
REMARK  160  A    between atoms: _390  and  _393
REMARK  161  A    between atoms: _393  and  _394
REMARK  162  A    between atoms: _397  and  _399
REMARK  163  A    between atoms: _399  and  _400
REMARK  164  A    between atoms: _399  and  _402
REMARK  165  A    between atoms: _402  and  _403
REMARK  166  A    between atoms: _406  and  _408
REMARK  167  A    between atoms: _408  and  _409
REMARK  168  A    between atoms: _408  and  _411
REMARK  169  A    between atoms: _411  and  _412
REMARK  170  A    between atoms: _415  and  _417
REMARK  171  A    between atoms: _417  and  _418
REMARK  172  A    between atoms: _420  and  _422
REMARK  173  A    between atoms: _422  and  _423
REMARK  174  A    between atoms: _425  and  _427
REMARK  175  A    between atoms: _427  and  _428
REMARK  176  A    between atoms: _427  and  _430
REMARK  177  A    between atoms: _430  and  _431
REMARK  178  A    between atoms: _434  and  _436
REMARK  179  A    between atoms: _436  and  _437
REMARK  180  A    between atoms: _439  and  _441
REMARK  181  A    between atoms: _441  and  _442
REMARK  182  A    between atoms: _444  and  _446
REMARK  183  A    between atoms: _446  and  _447
REMARK  184  A    between atoms: _446  and  _449
REMARK  185  A    between atoms: _449  and  _450
REMARK  186  A    between atoms: _456  and  _458
REMARK  187  A    between atoms: _458  and  _459
REMARK  188  A    between atoms: _458  and  _461
REMARK  189  A    between atoms: _461  and  _462
REMARK  190  A    between atoms: _465  and  _467
REMARK  191  A    between atoms: _467  and  _468
REMARK  192  A    between atoms: _467  and  _470
REMARK  193  A    between atoms: _470  and  _471
REMARK  194  A    between atoms: _474  and  _476
REMARK  195  A    between atoms: _476  and  _477
REMARK  196  A    between atoms: _476  and  _479
REMARK  197  A    between atoms: _479  and  _480
REMARK  198  A    between atoms: _484  and  _485
REMARK  199  A    between atoms: _490  and  _492
REMARK  200  A    between atoms: _492  and  _493
REMARK  201  A    between atoms: _492  and  _495
REMARK  202  A    between atoms: _495  and  _496
REMARK  203  A    between atoms: _499  and  _501
REMARK  204  A    between atoms: _501  and  _502
REMARK  205  A    between atoms: _501  and  _504
REMARK  206  A    between atoms: _504  and  _505
REMARK  207  A    between atoms: _510  and  _512
REMARK  208  A    between atoms: _512  and  _513
REMARK  209  A    between atoms: _512  and  _515
REMARK  210  A    between atoms: _518  and  _520
REMARK  211  A    between atoms: _520  and  _521
REMARK  212  A    between atoms: _520  and  _523
REMARK  213  A    between atoms: _523  and  _524
REMARK  214  A    between atoms: _527  and  _529
REMARK  215  A    between atoms: _529  and  _530
REMARK  216  A    between atoms: _532  and  _534
REMARK  217  A    between atoms: _534  and  _535
REMARK  218  A    between atoms: _534  and  _537
REMARK  219  A    between atoms: _537  and  _538
REMARK  220  A    between atoms: _538  and  _539
REMARK  221  A    between atoms: _539  and  _540
REMARK                            x       y       z     vdW  Elec       q    Type
REMARK                         _______ _______ _______ _____ _____    ______ ____
ROOT
ATOM      1  O   HOH     1      20.211  25.426   9.376  0.00  0.00    +0.000 OA
ENDROOT
TORSDOF 0
REMARK  Name = ../refined-set-2016/2o4n/2o4n_pocket.pdb
REMARK  221 active torsions:
REMARK  status: ('A' for Active; 'I' for Inactive)
REMARK    1  A    between atoms: _1  and  _3
REMARK    2  A    between atoms: _3  and  _4
REMARK    3  A    between atoms: _3  and  _6
REMARK    4  A    between atoms: _6  and  _7
REMARK    5  A    between atoms: _7  and  _8
REMARK    6  A    between atoms: _8  and  _9
REMARK    7  A    between atoms: _18  and  _20
REMARK    8  A    between atoms: _20  and  _21
REMARK    9  A    between atoms: _20  and  _23
REMARK   10  A    between atoms: _23  and  _24
REMARK   11  A    between atoms: _27  and  _29
REMARK   12  A    between atoms: _29  and  _30
REMARK   13  A    between atoms: _29  and  _32
REMARK   14  A    between atoms: _32  and  _33
REMARK   15  A    between atoms: _36  and  _38
REMARK   16  A    between atoms: _38  and  _39
REMARK   17  A    between atoms: _38  and  _41
REMARK   18  A    between atoms: _41  and  _42
REMARK   19  A    between atoms: _45  and  _47
REMARK   20  A    between atoms: _47  and  _48
REMARK   21  A    between atoms: _47  and  _50
REMARK   22  A    between atoms: _50  and  _51
REMARK   23  A    between atoms: _54  and  _56
REMARK   24  A    between atoms: _56  and  _57
REMARK   25  A    between atoms: _56  and  _59
REMARK   26  A    between atoms: _59  and  _60
REMARK   27  A    between atoms: _63  and  _65
REMARK   28  A    between atoms: _65  and  _66
REMARK   29  A    between atoms: _68  and  _70
REMARK   30  A    between atoms: _70  and  _71
REMARK   31  A    between atoms: _74  and  _76
REMARK   32  A    between atoms: _76  and  _77
REMARK   33  A    between atoms: _76  and  _79
REMARK   34  A    between atoms: _79  and  _80
REMARK   35  A    between atoms: _83  and  _85
REMARK   36  A    between atoms: _85  and  _86
REMARK   37  A    between atoms: _85  and  _88
REMARK   38  A    between atoms: _88  and  _89
REMARK   39  A    between atoms: _92  and  _94
REMARK   40  A    between atoms: _94  and  _95
REMARK   41  A    between atoms: _94  and  _97
REMARK   42  A    between atoms: _97  and  _98
REMARK   43  A    between atoms: _101  and  _103
REMARK   44  A    between atoms: _103  and  _104
REMARK   45  A    between atoms: _103  and  _106
REMARK   46  A    between atoms: _106  and  _107
REMARK   47  A    between atoms: _110  and  _112
REMARK   48  A    between atoms: _112  and  _113
REMARK   49  A    between atoms: _112  and  _115
REMARK   50  A    between atoms: _115  and  _116
REMARK   51  A    between atoms: _119  and  _121
REMARK   52  A    between atoms: _121  and  _122
REMARK   53  A    between atoms: _121  and  _124
REMARK   54  A    between atoms: _124  and  _125
REMARK   55  A    between atoms: _125  and  _126
REMARK   56  A    between atoms: _128  and  _130
REMARK   57  A    between atoms: _130  and  _131
REMARK   58  A    between atoms: _130  and  _133
REMARK   59  A    between atoms: _133  and  _134
REMARK   60  A    between atoms: _137  and  _139
REMARK   61  A    between atoms: _139  and  _140
REMARK   62  A    between atoms: _142  and  _144
REMARK   63  A    between atoms: _144  and  _145
REMARK   64  A    between atoms: _147  and  _149
REMARK   65  A    between atoms: _149  and  _150
REMARK   66  A    between atoms: _149  and  _152
REMARK   67  A    between atoms: _152  and  _153
REMARK   68  A    between atoms: _156  and  _158
REMARK   69  A    between atoms: _158  and  _159
REMARK   70  A    between atoms: _161  and  _163
REMARK   71  A    between atoms: _163  and  _164
REMARK   72  A    between atoms: _166  and  _168
REMARK   73  A    between atoms: _168  and  _169
REMARK   74  A    between atoms: _168  and  _171
REMARK   75  A    between atoms: _171  and  _172
REMARK   76  A    between atoms: _178  and  _180
REMARK   77  A    between atoms: _180  and  _181
REMARK   78  A    between atoms: _180  and  _183
REMARK   79  A    between atoms: _183  and  _184
REMARK   80  A    between atoms: _187  and  _189
REMARK   81  A    between atoms: _189  and  _190
REMARK   82  A    between atoms: _189  and  _192
REMARK   83  A    between atoms: _195  and  _197
REMARK   84  A    between atoms: _197  and  _198
REMARK   85  A    between atoms: _197  and  _200
REMARK   86  A    between atoms: _200  and  _201
REMARK   87  A    between atoms: _204  and  _206
REMARK   88  A    between atoms: _206  and  _207
REMARK   89  A    between atoms: _206  and  _209
REMARK   90  A    between atoms: _209  and  _210
REMARK   91  A    between atoms: _214  and  _215
REMARK   92  A    between atoms: _220  and  _222
REMARK   93  A    between atoms: _222  and  _223
REMARK   94  A    between atoms: _222  and  _225
REMARK   95  A    between atoms: _225  and  _226
REMARK   96  A    between atoms: _229  and  _231
REMARK   97  A    between atoms: _231  and  _232
REMARK   98  A    between atoms: _231  and  _234
REMARK   99  A    between atoms: _234  and  _235
REMARK  100  A    between atoms: _240  and  _242
REMARK  101  A    between atoms: _242  and  _243
REMARK  102  A    between atoms: _242  and  _245
REMARK  103  A    between atoms: _248  and  _250
REMARK  104  A    between atoms: _250  and  _251
REMARK  105  A    between atoms: _250  and  _253
REMARK  106  A    between atoms: _253  and  _254
REMARK  107  A    between atoms: _257  and  _259
REMARK  108  A    between atoms: _259  and  _260
REMARK  109  A    between atoms: _262  and  _264
REMARK  110  A    between atoms: _264  and  _265
REMARK  111  A    between atoms: _264  and  _267
REMARK  112  A    between atoms: _267  and  _268
REMARK  113  A    between atoms: _268  and  _269
REMARK  114  A    between atoms: _269  and  _270
REMARK  115  A    between atoms: _279  and  _281
REMARK  116  A    between atoms: _281  and  _282
REMARK  117  A    between atoms: _281  and  _284
REMARK  118  A    between atoms: _284  and  _285
REMARK  119  A    between atoms: _290  and  _292
REMARK  120  A    between atoms: _292  and  _293
REMARK  121  A    between atoms: _292  and  _295
REMARK  122  A    between atoms: _295  and  _296
REMARK  123  A    between atoms: _296  and  _297
REMARK  124  A    between atoms: _297  and  _298
REMARK  125  A    between atoms: _308  and  _309
REMARK  126  A    between atoms: _314  and  _316
REMARK  127  A    between atoms: _316  and  _317
REMARK  128  A    between atoms: _316  and  _319
REMARK  129  A    between atoms: _319  and  _320
REMARK  130  A    between atoms: _323  and  _325
REMARK  131  A    between atoms: _325  and  _326
REMARK  132  A    between atoms: _325  and  _328
REMARK  133  A    between atoms: _328  and  _329
REMARK  134  A    between atoms: _332  and  _334
REMARK  135  A    between atoms: _334  and  _335
REMARK  136  A    between atoms: _334  and  _337
REMARK  137  A    between atoms: _337  and  _338
REMARK  138  A    between atoms: _341  and  _343
REMARK  139  A    between atoms: _343  and  _344
REMARK  140  A    between atoms: _343  and  _346
REMARK  141  A    between atoms: _346  and  _347
REMARK  142  A    between atoms: _350  and  _352
REMARK  143  A    between atoms: _352  and  _353
REMARK  144  A    between atoms: _352  and  _355
REMARK  145  A    between atoms: _355  and  _356
REMARK  146  A    between atoms: _359  and  _361
REMARK  147  A    between atoms: _361  and  _362
REMARK  148  A    between atoms: _364  and  _366
REMARK  149  A    between atoms: _366  and  _367
REMARK  150  A    between atoms: _370  and  _372
REMARK  151  A    between atoms: _372  and  _373
REMARK  152  A    between atoms: _372  and  _375
REMARK  153  A    between atoms: _375  and  _376
REMARK  154  A    between atoms: _379  and  _381
REMARK  155  A    between atoms: _381  and  _382
REMARK  156  A    between atoms: _381  and  _384
REMARK  157  A    between atoms: _384  and  _385
REMARK  158  A    between atoms: _388  and  _390
REMARK  159  A    between atoms: _390  and  _391
REMARK  160  A    between atoms: _390  and  _393
REMARK  161  A    between atoms: _393  and  _394
REMARK  162  A    between atoms: _397  and  _399
REMARK  163  A    between atoms: _399  and  _400
REMARK  164  A    between atoms: _399  and  _402
REMARK  165  A    between atoms: _402  and  _403
REMARK  166  A    between atoms: _406  and  _408
REMARK  167  A    between atoms: _408  and  _409
REMARK  168  A    between atoms: _408  and  _411
REMARK  169  A    between atoms: _411  and  _412
REMARK  170  A    between atoms: _415  and  _417
REMARK  171  A    between atoms: _417  and  _418
REMARK  172  A    between atoms: _420  and  _422
REMARK  173  A    between atoms: _422  and  _423
REMARK  174  A    between atoms: _425  and  _427
REMARK  175  A    between atoms: _427  and  _428
REMARK  176  A    between atoms: _427  and  _430
REMARK  177  A    between atoms: _430  and  _431
REMARK  178  A    between atoms: _434  and  _436
REMARK  179  A    between atoms: _436  and  _437
REMARK  180  A    between atoms: _439  and  _441
REMARK  181  A    between atoms: _441  and  _442
REMARK  182  A    between atoms: _444  and  _446
REMARK  183  A    between atoms: _446  and  _447
REMARK  184  A    between atoms: _446  and  _449
REMARK  185  A    between atoms: _449  and  _450
REMARK  186  A    between atoms: _456  and  _458
REMARK  187  A    between atoms: _458  and  _459
REMARK  188  A    between atoms: _458  and  _461
REMARK  189  A    between atoms: _461  and  _462
REMARK  190  A    between atoms: _465  and  _467
REMARK  191  A    between atoms: _467  and  _468
REMARK  192  A    between atoms: _467  and  _470
REMARK  193  A    between atoms: _470  and  _471
REMARK  194  A    between atoms: _474  and  _476
REMARK  195  A    between atoms: _476  and  _477
REMARK  196  A    between atoms: _476  and  _479
REMARK  197  A    between atoms: _479  and  _480
REMARK  198  A    between atoms: _484  and  _485
REMARK  199  A    between atoms: _490  and  _492
REMARK  200  A    between atoms: _492  and  _493
REMARK  201  A    between atoms: _492  and  _495
REMARK  202  A    between atoms: _495  and  _496
REMARK  203  A    between atoms: _499  and  _501
REMARK  204  A    between atoms: _501  and  _502
REMARK  205  A    between atoms: _501  and  _504
REMARK  206  A    between atoms: _504  and  _505
REMARK  207  A    between atoms: _510  and  _512
REMARK  208  A    between atoms: _512  and  _513
REMARK  209  A    between atoms: _512  and  _515
REMARK  210  A    between atoms: _518  and  _520
REMARK  211  A    between atoms: _520  and  _521
REMARK  212  A    between atoms: _520  and  _523
REMARK  213  A    between atoms: _523  and  _524
REMARK  214  A    between atoms: _527  and  _529
REMARK  215  A    between atoms: _529  and  _530
REMARK  216  A    between atoms: _532  and  _534
REMARK  217  A    between atoms: _534  and  _535
REMARK  218  A    between atoms: _534  and  _537
REMARK  219  A    between atoms: _537  and  _538
REMARK  220  A    between atoms: _538  and  _539
REMARK  221  A    between atoms: _539  and  _540
REMARK                            x       y       z     vdW  Elec       q    Type
REMARK                         _______ _______ _______ _____ _____    ______ ____
ROOT
ATOM      1  O   HOH     1       3.343   9.590  11.948  0.00  0.00    +0.000 OA
ENDROOT
TORSDOF 0
REMARK  Name = ../refined-set-2016/2o4n/2o4n_pocket.pdb
REMARK  221 active torsions:
REMARK  status: ('A' for Active; 'I' for Inactive)
REMARK    1  A    between atoms: _1  and  _3
REMARK    2  A    between atoms: _3  and  _4
REMARK    3  A    between atoms: _3  and  _6
REMARK    4  A    between atoms: _6  and  _7
REMARK    5  A    between atoms: _7  and  _8
REMARK    6  A    between atoms: _8  and  _9
REMARK    7  A    between atoms: _18  and  _20
REMARK    8  A    between atoms: _20  and  _21
REMARK    9  A    between atoms: _20  and  _23
REMARK   10  A    between atoms: _23  and  _24
REMARK   11  A    between atoms: _27  and  _29
REMARK   12  A    between atoms: _29  and  _30
REMARK   13  A    between atoms: _29  and  _32
REMARK   14  A    between atoms: _32  and  _33
REMARK   15  A    between atoms: _36  and  _38
REMARK   16  A    between atoms: _38  and  _39
REMARK   17  A    between atoms: _38  and  _41
REMARK   18  A    between atoms: _41  and  _42
REMARK   19  A    between atoms: _45  and  _47
REMARK   20  A    between atoms: _47  and  _48
REMARK   21  A    between atoms: _47  and  _50
REMARK   22  A    between atoms: _50  and  _51
REMARK   23  A    between atoms: _54  and  _56
REMARK   24  A    between atoms: _56  and  _57
REMARK   25  A    between atoms: _56  and  _59
REMARK   26  A    between atoms: _59  and  _60
REMARK   27  A    between atoms: _63  and  _65
REMARK   28  A    between atoms: _65  and  _66
REMARK   29  A    between atoms: _68  and  _70
REMARK   30  A    between atoms: _70  and  _71
REMARK   31  A    between atoms: _74  and  _76
REMARK   32  A    between atoms: _76  and  _77
REMARK   33  A    between atoms: _76  and  _79
REMARK   34  A    between atoms: _79  and  _80
REMARK   35  A    between atoms: _83  and  _85
REMARK   36  A    between atoms: _85  and  _86
REMARK   37  A    between atoms: _85  and  _88
REMARK   38  A    between atoms: _88  and  _89
REMARK   39  A    between atoms: _92  and  _94
REMARK   40  A    between atoms: _94  and  _95
REMARK   41  A    between atoms: _94  and  _97
REMARK   42  A    between atoms: _97  and  _98
REMARK   43  A    between atoms: _101  and  _103
REMARK   44  A    between atoms: _103  and  _104
REMARK   45  A    between atoms: _103  and  _106
REMARK   46  A    between atoms: _106  and  _107
REMARK   47  A    between atoms: _110  and  _112
REMARK   48  A    between atoms: _112  and  _113
REMARK   49  A    between atoms: _112  and  _115
REMARK   50  A    between atoms: _115  and  _116
REMARK   51  A    between atoms: _119  and  _121
REMARK   52  A    between atoms: _121  and  _122
REMARK   53  A    between atoms: _121  and  _124
REMARK   54  A    between atoms: _124  and  _125
REMARK   55  A    between atoms: _125  and  _126
REMARK   56  A    between atoms: _128  and  _130
REMARK   57  A    between atoms: _130  and  _131
REMARK   58  A    between atoms: _130  and  _133
REMARK   59  A    between atoms: _133  and  _134
REMARK   60  A    between atoms: _137  and  _139
REMARK   61  A    between atoms: _139  and  _140
REMARK   62  A    between atoms: _142  and  _144
REMARK   63  A    between atoms: _144  and  _145
REMARK   64  A    between atoms: _147  and  _149
REMARK   65  A    between atoms: _149  and  _150
REMARK   66  A    between atoms: _149  and  _152
REMARK   67  A    between atoms: _152  and  _153
REMARK   68  A    between atoms: _156  and  _158
REMARK   69  A    between atoms: _158  and  _159
REMARK   70  A    between atoms: _161  and  _163
REMARK   71  A    between atoms: _163  and  _164
REMARK   72  A    between atoms: _166  and  _168
REMARK   73  A    between atoms: _168  and  _169
REMARK   74  A    between atoms: _168  and  _171
REMARK   75  A    between atoms: _171  and  _172
REMARK   76  A    between atoms: _178  and  _180
REMARK   77  A    between atoms: _180  and  _181
REMARK   78  A    between atoms: _180  and  _183
REMARK   79  A    between atoms: _183  and  _184
REMARK   80  A    between atoms: _187  and  _189
REMARK   81  A    between atoms: _189  and  _190
REMARK   82  A    between atoms: _189  and  _192
REMARK   83  A    between atoms: _195  and  _197
REMARK   84  A    between atoms: _197  and  _198
REMARK   85  A    between atoms: _197  and  _200
REMARK   86  A    between atoms: _200  and  _201
REMARK   87  A    between atoms: _204  and  _206
REMARK   88  A    between atoms: _206  and  _207
REMARK   89  A    between atoms: _206  and  _209
REMARK   90  A    between atoms: _209  and  _210
REMARK   91  A    between atoms: _214  and  _215
REMARK   92  A    between atoms: _220  and  _222
REMARK   93  A    between atoms: _222  and  _223
REMARK   94  A    between atoms: _222  and  _225
REMARK   95  A    between atoms: _225  and  _226
REMARK   96  A    between atoms: _229  and  _231
REMARK   97  A    between atoms: _231  and  _232
REMARK   98  A    between atoms: _231  and  _234
REMARK   99  A    between atoms: _234  and  _235
REMARK  100  A    between atoms: _240  and  _242
REMARK  101  A    between atoms: _242  and  _243
REMARK  102  A    between atoms: _242  and  _245
REMARK  103  A    between atoms: _248  and  _250
REMARK  104  A    between atoms: _250  and  _251
REMARK  105  A    between atoms: _250  and  _253
REMARK  106  A    between atoms: _253  and  _254
REMARK  107  A    between atoms: _257  and  _259
REMARK  108  A    between atoms: _259  and  _260
REMARK  109  A    between atoms: _262  and  _264
REMARK  110  A    between atoms: _264  and  _265
REMARK  111  A    between atoms: _264  and  _267
REMARK  112  A    between atoms: _267  and  _268
REMARK  113  A    between atoms: _268  and  _269
REMARK  114  A    between atoms: _269  and  _270
REMARK  115  A    between atoms: _279  and  _281
REMARK  116  A    between atoms: _281  and  _282
REMARK  117  A    between atoms: _281  and  _284
REMARK  118  A    between atoms: _284  and  _285
REMARK  119  A    between atoms: _290  and  _292
REMARK  120  A    between atoms: _292  and  _293
REMARK  121  A    between atoms: _292  and  _295
REMARK  122  A    between atoms: _295  and  _296
REMARK  123  A    between atoms: _296  and  _297
REMARK  124  A    between atoms: _297  and  _298
REMARK  125  A    between atoms: _308  and  _309
REMARK  126  A    between atoms: _314  and  _316
REMARK  127  A    between atoms: _316  and  _317
REMARK  128  A    between atoms: _316  and  _319
REMARK  129  A    between atoms: _319  and  _320
REMARK  130  A    between atoms: _323  and  _325
REMARK  131  A    between atoms: _325  and  _326
REMARK  132  A    between atoms: _325  and  _328
REMARK  133  A    between atoms: _328  and  _329
REMARK  134  A    between atoms: _332  and  _334
REMARK  135  A    between atoms: _334  and  _335
REMARK  136  A    between atoms: _334  and  _337
REMARK  137  A    between atoms: _337  and  _338
REMARK  138  A    between atoms: _341  and  _343
REMARK  139  A    between atoms: _343  and  _344
REMARK  140  A    between atoms: _343  and  _346
REMARK  141  A    between atoms: _346  and  _347
REMARK  142  A    between atoms: _350  and  _352
REMARK  143  A    between atoms: _352  and  _353
REMARK  144  A    between atoms: _352  and  _355
REMARK  145  A    between atoms: _355  and  _356
REMARK  146  A    between atoms: _359  and  _361
REMARK  147  A    between atoms: _361  and  _362
REMARK  148  A    between atoms: _364  and  _366
REMARK  149  A    between atoms: _366  and  _367
REMARK  150  A    between atoms: _370  and  _372
REMARK  151  A    between atoms: _372  and  _373
REMARK  152  A    between atoms: _372  and  _375
REMARK  153  A    between atoms: _375  and  _376
REMARK  154  A    between atoms: _379  and  _381
REMARK  155  A    between atoms: _381  and  _382
REMARK  156  A    between atoms: _381  and  _384
REMARK  157  A    between atoms: _384  and  _385
REMARK  158  A    between atoms: _388  and  _390
REMARK  159  A    between atoms: _390  and  _391
REMARK  160  A    between atoms: _390  and  _393
REMARK  161  A    between atoms: _393  and  _394
REMARK  162  A    between atoms: _397  and  _399
REMARK  163  A    between atoms: _399  and  _400
REMARK  164  A    between atoms: _399  and  _402
REMARK  165  A    between atoms: _402  and  _403
REMARK  166  A    between atoms: _406  and  _408
REMARK  167  A    between atoms: _408  and  _409
REMARK  168  A    between atoms: _408  and  _411
REMARK  169  A    between atoms: _411  and  _412
REMARK  170  A    between atoms: _415  and  _417
REMARK  171  A    between atoms: _417  and  _418
REMARK  172  A    between atoms: _420  and  _422
REMARK  173  A    between atoms: _422  and  _423
REMARK  174  A    between atoms: _425  and  _427
REMARK  175  A    between atoms: _427  and  _428
REMARK  176  A    between atoms: _427  and  _430
REMARK  177  A    between atoms: _430  and  _431
REMARK  178  A    between atoms: _434  and  _436
REMARK  179  A    between atoms: _436  and  _437
REMARK  180  A    between atoms: _439  and  _441
REMARK  181  A    between atoms: _441  and  _442
REMARK  182  A    between atoms: _444  and  _446
REMARK  183  A    between atoms: _446  and  _447
REMARK  184  A    between atoms: _446  and  _449
REMARK  185  A    between atoms: _449  and  _450
REMARK  186  A    between atoms: _456  and  _458
REMARK  187  A    between atoms: _458  and  _459
REMARK  188  A    between atoms: _458  and  _461
REMARK  189  A    between atoms: _461  and  _462
REMARK  190  A    between atoms: _465  and  _467
REMARK  191  A    between atoms: _467  and  _468
REMARK  192  A    between atoms: _467  and  _470
REMARK  193  A    between atoms: _470  and  _471
REMARK  194  A    between atoms: _474  and  _476
REMARK  195  A    between atoms: _476  and  _477
REMARK  196  A    between atoms: _476  and  _479
REMARK  197  A    between atoms: _479  and  _480
REMARK  198  A    between atoms: _484  and  _485
REMARK  199  A    between atoms: _490  and  _492
REMARK  200  A    between atoms: _492  and  _493
REMARK  201  A    between atoms: _492  and  _495
REMARK  202  A    between atoms: _495  and  _496
REMARK  203  A    between atoms: _499  and  _501
REMARK  204  A    between atoms: _501  and  _502
REMARK  205  A    between atoms: _501  and  _504
REMARK  206  A    between atoms: _504  and  _505
REMARK  207  A    between atoms: _510  and  _512
REMARK  208  A    between atoms: _512  and  _513
REMARK  209  A    between atoms: _512  and  _515
REMARK  210  A    between atoms: _518  and  _520
REMARK  211  A    between atoms: _520  and  _521
REMARK  212  A    between atoms: _520  and  _523
REMARK  213  A    between atoms: _523  and  _524
REMARK  214  A    between atoms: _527  and  _529
REMARK  215  A    between atoms: _529  and  _530
REMARK  216  A    between atoms: _532  and  _534
REMARK  217  A    between atoms: _534  and  _535
REMARK  218  A    between atoms: _534  and  _537
REMARK  219  A    between atoms: _537  and  _538
REMARK  220  A    between atoms: _538  and  _539
REMARK  221  A    between atoms: _539  and  _540
REMARK                            x       y       z     vdW  Elec       q    Type
REMARK                         _______ _______ _______ _____ _____    ______ ____
ROOT
ATOM      1  O   HOH     1       3.904  12.832  17.302  0.00  0.00    +0.000 OA
ENDROOT
TORSDOF 0
REMARK  Name = ../refined-set-2016/2o4n/2o4n_pocket.pdb
REMARK  221 active torsions:
REMARK  status: ('A' for Active; 'I' for Inactive)
REMARK    1  A    between atoms: _1  and  _3
REMARK    2  A    between atoms: _3  and  _4
REMARK    3  A    between atoms: _3  and  _6
REMARK    4  A    between atoms: _6  and  _7
REMARK    5  A    between atoms: _7  and  _8
REMARK    6  A    between atoms: _8  and  _9
REMARK    7  A    between atoms: _18  and  _20
REMARK    8  A    between atoms: _20  and  _21
REMARK    9  A    between atoms: _20  and  _23
REMARK   10  A    between atoms: _23  and  _24
REMARK   11  A    between atoms: _27  and  _29
REMARK   12  A    between atoms: _29  and  _30
REMARK   13  A    between atoms: _29  and  _32
REMARK   14  A    between atoms: _32  and  _33
REMARK   15  A    between atoms: _36  and  _38
REMARK   16  A    between atoms: _38  and  _39
REMARK   17  A    between atoms: _38  and  _41
REMARK   18  A    between atoms: _41  and  _42
REMARK   19  A    between atoms: _45  and  _47
REMARK   20  A    between atoms: _47  and  _48
REMARK   21  A    between atoms: _47  and  _50
REMARK   22  A    between atoms: _50  and  _51
REMARK   23  A    between atoms: _54  and  _56
REMARK   24  A    between atoms: _56  and  _57
REMARK   25  A    between atoms: _56  and  _59
REMARK   26  A    between atoms: _59  and  _60
REMARK   27  A    between atoms: _63  and  _65
REMARK   28  A    between atoms: _65  and  _66
REMARK   29  A    between atoms: _68  and  _70
REMARK   30  A    between atoms: _70  and  _71
REMARK   31  A    between atoms: _74  and  _76
REMARK   32  A    between atoms: _76  and  _77
REMARK   33  A    between atoms: _76  and  _79
REMARK   34  A    between atoms: _79  and  _80
REMARK   35  A    between atoms: _83  and  _85
REMARK   36  A    between atoms: _85  and  _86
REMARK   37  A    between atoms: _85  and  _88
REMARK   38  A    between atoms: _88  and  _89
REMARK   39  A    between atoms: _92  and  _94
REMARK   40  A    between atoms: _94  and  _95
REMARK   41  A    between atoms: _94  and  _97
REMARK   42  A    between atoms: _97  and  _98
REMARK   43  A    between atoms: _101  and  _103
REMARK   44  A    between atoms: _103  and  _104
REMARK   45  A    between atoms: _103  and  _106
REMARK   46  A    between atoms: _106  and  _107
REMARK   47  A    between atoms: _110  and  _112
REMARK   48  A    between atoms: _112  and  _113
REMARK   49  A    between atoms: _112  and  _115
REMARK   50  A    between atoms: _115  and  _116
REMARK   51  A    between atoms: _119  and  _121
REMARK   52  A    between atoms: _121  and  _122
REMARK   53  A    between atoms: _121  and  _124
REMARK   54  A    between atoms: _124  and  _125
REMARK   55  A    between atoms: _125  and  _126
REMARK   56  A    between atoms: _128  and  _130
REMARK   57  A    between atoms: _130  and  _131
REMARK   58  A    between atoms: _130  and  _133
REMARK   59  A    between atoms: _133  and  _134
REMARK   60  A    between atoms: _137  and  _139
REMARK   61  A    between atoms: _139  and  _140
REMARK   62  A    between atoms: _142  and  _144
REMARK   63  A    between atoms: _144  and  _145
REMARK   64  A    between atoms: _147  and  _149
REMARK   65  A    between atoms: _149  and  _150
REMARK   66  A    between atoms: _149  and  _152
REMARK   67  A    between atoms: _152  and  _153
REMARK   68  A    between atoms: _156  and  _158
REMARK   69  A    between atoms: _158  and  _159
REMARK   70  A    between atoms: _161  and  _163
REMARK   71  A    between atoms: _163  and  _164
REMARK   72  A    between atoms: _166  and  _168
REMARK   73  A    between atoms: _168  and  _169
REMARK   74  A    between atoms: _168  and  _171
REMARK   75  A    between atoms: _171  and  _172
REMARK   76  A    between atoms: _178  and  _180
REMARK   77  A    between atoms: _180  and  _181
REMARK   78  A    between atoms: _180  and  _183
REMARK   79  A    between atoms: _183  and  _184
REMARK   80  A    between atoms: _187  and  _189
REMARK   81  A    between atoms: _189  and  _190
REMARK   82  A    between atoms: _189  and  _192
REMARK   83  A    between atoms: _195  and  _197
REMARK   84  A    between atoms: _197  and  _198
REMARK   85  A    between atoms: _197  and  _200
REMARK   86  A    between atoms: _200  and  _201
REMARK   87  A    between atoms: _204  and  _206
REMARK   88  A    between atoms: _206  and  _207
REMARK   89  A    between atoms: _206  and  _209
REMARK   90  A    between atoms: _209  and  _210
REMARK   91  A    between atoms: _214  and  _215
REMARK   92  A    between atoms: _220  and  _222
REMARK   93  A    between atoms: _222  and  _223
REMARK   94  A    between atoms: _222  and  _225
REMARK   95  A    between atoms: _225  and  _226
REMARK   96  A    between atoms: _229  and  _231
REMARK   97  A    between atoms: _231  and  _232
REMARK   98  A    between atoms: _231  and  _234
REMARK   99  A    between atoms: _234  and  _235
REMARK  100  A    between atoms: _240  and  _242
REMARK  101  A    between atoms: _242  and  _243
REMARK  102  A    between atoms: _242  and  _245
REMARK  103  A    between atoms: _248  and  _250
REMARK  104  A    between atoms: _250  and  _251
REMARK  105  A    between atoms: _250  and  _253
REMARK  106  A    between atoms: _253  and  _254
REMARK  107  A    between atoms: _257  and  _259
REMARK  108  A    between atoms: _259  and  _260
REMARK  109  A    between atoms: _262  and  _264
REMARK  110  A    between atoms: _264  and  _265
REMARK  111  A    between atoms: _264  and  _267
REMARK  112  A    between atoms: _267  and  _268
REMARK  113  A    between atoms: _268  and  _269
REMARK  114  A    between atoms: _269  and  _270
REMARK  115  A    between atoms: _279  and  _281
REMARK  116  A    between atoms: _281  and  _282
REMARK  117  A    between atoms: _281  and  _284
REMARK  118  A    between atoms: _284  and  _285
REMARK  119  A    between atoms: _290  and  _292
REMARK  120  A    between atoms: _292  and  _293
REMARK  121  A    between atoms: _292  and  _295
REMARK  122  A    between atoms: _295  and  _296
REMARK  123  A    between atoms: _296  and  _297
REMARK  124  A    between atoms: _297  and  _298
REMARK  125  A    between atoms: _308  and  _309
REMARK  126  A    between atoms: _314  and  _316
REMARK  127  A    between atoms: _316  and  _317
REMARK  128  A    between atoms: _316  and  _319
REMARK  129  A    between atoms: _319  and  _320
REMARK  130  A    between atoms: _323  and  _325
REMARK  131  A    between atoms: _325  and  _326
REMARK  132  A    between atoms: _325  and  _328
REMARK  133  A    between atoms: _328  and  _329
REMARK  134  A    between atoms: _332  and  _334
REMARK  135  A    between atoms: _334  and  _335
REMARK  136  A    between atoms: _334  and  _337
REMARK  137  A    between atoms: _337  and  _338
REMARK  138  A    between atoms: _341  and  _343
REMARK  139  A    between atoms: _343  and  _344
REMARK  140  A    between atoms: _343  and  _346
REMARK  141  A    between atoms: _346  and  _347
REMARK  142  A    between atoms: _350  and  _352
REMARK  143  A    between atoms: _352  and  _353
REMARK  144  A    between atoms: _352  and  _355
REMARK  145  A    between atoms: _355  and  _356
REMARK  146  A    between atoms: _359  and  _361
REMARK  147  A    between atoms: _361  and  _362
REMARK  148  A    between atoms: _364  and  _366
REMARK  149  A    between atoms: _366  and  _367
REMARK  150  A    between atoms: _370  and  _372
REMARK  151  A    between atoms: _372  and  _373
REMARK  152  A    between atoms: _372  and  _375
REMARK  153  A    between atoms: _375  and  _376
REMARK  154  A    between atoms: _379  and  _381
REMARK  155  A    between atoms: _381  and  _382
REMARK  156  A    between atoms: _381  and  _384
REMARK  157  A    between atoms: _384  and  _385
REMARK  158  A    between atoms: _388  and  _390
REMARK  159  A    between atoms: _390  and  _391
REMARK  160  A    between atoms: _390  and  _393
REMARK  161  A    between atoms: _393  and  _394
REMARK  162  A    between atoms: _397  and  _399
REMARK  163  A    between atoms: _399  and  _400
REMARK  164  A    between atoms: _399  and  _402
REMARK  165  A    between atoms: _402  and  _403
REMARK  166  A    between atoms: _406  and  _408
REMARK  167  A    between atoms: _408  and  _409
REMARK  168  A    between atoms: _408  and  _411
REMARK  169  A    between atoms: _411  and  _412
REMARK  170  A    between atoms: _415  and  _417
REMARK  171  A    between atoms: _417  and  _418
REMARK  172  A    between atoms: _420  and  _422
REMARK  173  A    between atoms: _422  and  _423
REMARK  174  A    between atoms: _425  and  _427
REMARK  175  A    between atoms: _427  and  _428
REMARK  176  A    between atoms: _427  and  _430
REMARK  177  A    between atoms: _430  and  _431
REMARK  178  A    between atoms: _434  and  _436
REMARK  179  A    between atoms: _436  and  _437
REMARK  180  A    between atoms: _439  and  _441
REMARK  181  A    between atoms: _441  and  _442
REMARK  182  A    between atoms: _444  and  _446
REMARK  183  A    between atoms: _446  and  _447
REMARK  184  A    between atoms: _446  and  _449
REMARK  185  A    between atoms: _449  and  _450
REMARK  186  A    between atoms: _456  and  _458
REMARK  187  A    between atoms: _458  and  _459
REMARK  188  A    between atoms: _458  and  _461
REMARK  189  A    between atoms: _461  and  _462
REMARK  190  A    between atoms: _465  and  _467
REMARK  191  A    between atoms: _467  and  _468
REMARK  192  A    between atoms: _467  and  _470
REMARK  193  A    between atoms: _470  and  _471
REMARK  194  A    between atoms: _474  and  _476
REMARK  195  A    between atoms: _476  and  _477
REMARK  196  A    between atoms: _476  and  _479
REMARK  197  A    between atoms: _479  and  _480
REMARK  198  A    between atoms: _484  and  _485
REMARK  199  A    between atoms: _490  and  _492
REMARK  200  A    between atoms: _492  and  _493
REMARK  201  A    between atoms: _492  and  _495
REMARK  202  A    between atoms: _495  and  _496
REMARK  203  A    between atoms: _499  and  _501
REMARK  204  A    between atoms: _501  and  _502
REMARK  205  A    between atoms: _501  and  _504
REMARK  206  A    between atoms: _504  and  _505
REMARK  207  A    between atoms: _510  and  _512
REMARK  208  A    between atoms: _512  and  _513
REMARK  209  A    between atoms: _512  and  _515
REMARK  210  A    between atoms: _518  and  _520
REMARK  211  A    between atoms: _520  and  _521
REMARK  212  A    between atoms: _520  and  _523
REMARK  213  A    between atoms: _523  and  _524
REMARK  214  A    between atoms: _527  and  _529
REMARK  215  A    between atoms: _529  and  _530
REMARK  216  A    between atoms: _532  and  _534
REMARK  217  A    between atoms: _534  and  _535
REMARK  218  A    between atoms: _534  and  _537
REMARK  219  A    between atoms: _537  and  _538
REMARK  220  A    between atoms: _538  and  _539
REMARK  221  A    between atoms: _539  and  _540
REMARK                            x       y       z     vdW  Elec       q    Type
REMARK                         _______ _______ _______ _____ _____    ______ ____
ROOT
ATOM      1  O   HOH     1      22.591  19.836   8.638  0.00  0.00    +0.000 OA
ENDROOT
TORSDOF 0
REMARK  Name = ../refined-set-2016/2o4n/2o4n_pocket.pdb
REMARK  221 active torsions:
REMARK  status: ('A' for Active; 'I' for Inactive)
REMARK    1  A    between atoms: _1  and  _3
REMARK    2  A    between atoms: _3  and  _4
REMARK    3  A    between atoms: _3  and  _6
REMARK    4  A    between atoms: _6  and  _7
REMARK    5  A    between atoms: _7  and  _8
REMARK    6  A    between atoms: _8  and  _9
REMARK    7  A    between atoms: _18  and  _20
REMARK    8  A    between atoms: _20  and  _21
REMARK    9  A    between atoms: _20  and  _23
REMARK   10  A    between atoms: _23  and  _24
REMARK   11  A    between atoms: _27  and  _29
REMARK   12  A    between atoms: _29  and  _30
REMARK   13  A    between atoms: _29  and  _32
REMARK   14  A    between atoms: _32  and  _33
REMARK   15  A    between atoms: _36  and  _38
REMARK   16  A    between atoms: _38  and  _39
REMARK   17  A    between atoms: _38  and  _41
REMARK   18  A    between atoms: _41  and  _42
REMARK   19  A    between atoms: _45  and  _47
REMARK   20  A    between atoms: _47  and  _48
REMARK   21  A    between atoms: _47  and  _50
REMARK   22  A    between atoms: _50  and  _51
REMARK   23  A    between atoms: _54  and  _56
REMARK   24  A    between atoms: _56  and  _57
REMARK   25  A    between atoms: _56  and  _59
REMARK   26  A    between atoms: _59  and  _60
REMARK   27  A    between atoms: _63  and  _65
REMARK   28  A    between atoms: _65  and  _66
REMARK   29  A    between atoms: _68  and  _70
REMARK   30  A    between atoms: _70  and  _71
REMARK   31  A    between atoms: _74  and  _76
REMARK   32  A    between atoms: _76  and  _77
REMARK   33  A    between atoms: _76  and  _79
REMARK   34  A    between atoms: _79  and  _80
REMARK   35  A    between atoms: _83  and  _85
REMARK   36  A    between atoms: _85  and  _86
REMARK   37  A    between atoms: _85  and  _88
REMARK   38  A    between atoms: _88  and  _89
REMARK   39  A    between atoms: _92  and  _94
REMARK   40  A    between atoms: _94  and  _95
REMARK   41  A    between atoms: _94  and  _97
REMARK   42  A    between atoms: _97  and  _98
REMARK   43  A    between atoms: _101  and  _103
REMARK   44  A    between atoms: _103  and  _104
REMARK   45  A    between atoms: _103  and  _106
REMARK   46  A    between atoms: _106  and  _107
REMARK   47  A    between atoms: _110  and  _112
REMARK   48  A    between atoms: _112  and  _113
REMARK   49  A    between atoms: _112  and  _115
REMARK   50  A    between atoms: _115  and  _116
REMARK   51  A    between atoms: _119  and  _121
REMARK   52  A    between atoms: _121  and  _122
REMARK   53  A    between atoms: _121  and  _124
REMARK   54  A    between atoms: _124  and  _125
REMARK   55  A    between atoms: _125  and  _126
REMARK   56  A    between atoms: _128  and  _130
REMARK   57  A    between atoms: _130  and  _131
REMARK   58  A    between atoms: _130  and  _133
REMARK   59  A    between atoms: _133  and  _134
REMARK   60  A    between atoms: _137  and  _139
REMARK   61  A    between atoms: _139  and  _140
REMARK   62  A    between atoms: _142  and  _144
REMARK   63  A    between atoms: _144  and  _145
REMARK   64  A    between atoms: _147  and  _149
REMARK   65  A    between atoms: _149  and  _150
REMARK   66  A    between atoms: _149  and  _152
REMARK   67  A    between atoms: _152  and  _153
REMARK   68  A    between atoms: _156  and  _158
REMARK   69  A    between atoms: _158  and  _159
REMARK   70  A    between atoms: _161  and  _163
REMARK   71  A    between atoms: _163  and  _164
REMARK   72  A    between atoms: _166  and  _168
REMARK   73  A    between atoms: _168  and  _169
REMARK   74  A    between atoms: _168  and  _171
REMARK   75  A    between atoms: _171  and  _172
REMARK   76  A    between atoms: _178  and  _180
REMARK   77  A    between atoms: _180  and  _181
REMARK   78  A    between atoms: _180  and  _183
REMARK   79  A    between atoms: _183  and  _184
REMARK   80  A    between atoms: _187  and  _189
REMARK   81  A    between atoms: _189  and  _190
REMARK   82  A    between atoms: _189  and  _192
REMARK   83  A    between atoms: _195  and  _197
REMARK   84  A    between atoms: _197  and  _198
REMARK   85  A    between atoms: _197  and  _200
REMARK   86  A    between atoms: _200  and  _201
REMARK   87  A    between atoms: _204  and  _206
REMARK   88  A    between atoms: _206  and  _207
REMARK   89  A    between atoms: _206  and  _209
REMARK   90  A    between atoms: _209  and  _210
REMARK   91  A    between atoms: _214  and  _215
REMARK   92  A    between atoms: _220  and  _222
REMARK   93  A    between atoms: _222  and  _223
REMARK   94  A    between atoms: _222  and  _225
REMARK   95  A    between atoms: _225  and  _226
REMARK   96  A    between atoms: _229  and  _231
REMARK   97  A    between atoms: _231  and  _232
REMARK   98  A    between atoms: _231  and  _234
REMARK   99  A    between atoms: _234  and  _235
REMARK  100  A    between atoms: _240  and  _242
REMARK  101  A    between atoms: _242  and  _243
REMARK  102  A    between atoms: _242  and  _245
REMARK  103  A    between atoms: _248  and  _250
REMARK  104  A    between atoms: _250  and  _251
REMARK  105  A    between atoms: _250  and  _253
REMARK  106  A    between atoms: _253  and  _254
REMARK  107  A    between atoms: _257  and  _259
REMARK  108  A    between atoms: _259  and  _260
REMARK  109  A    between atoms: _262  and  _264
REMARK  110  A    between atoms: _264  and  _265
REMARK  111  A    between atoms: _264  and  _267
REMARK  112  A    between atoms: _267  and  _268
REMARK  113  A    between atoms: _268  and  _269
REMARK  114  A    between atoms: _269  and  _270
REMARK  115  A    between atoms: _279  and  _281
REMARK  116  A    between atoms: _281  and  _282
REMARK  117  A    between atoms: _281  and  _284
REMARK  118  A    between atoms: _284  and  _285
REMARK  119  A    between atoms: _290  and  _292
REMARK  120  A    between atoms: _292  and  _293
REMARK  121  A    between atoms: _292  and  _295
REMARK  122  A    between atoms: _295  and  _296
REMARK  123  A    between atoms: _296  and  _297
REMARK  124  A    between atoms: _297  and  _298
REMARK  125  A    between atoms: _308  and  _309
REMARK  126  A    between atoms: _314  and  _316
REMARK  127  A    between atoms: _316  and  _317
REMARK  128  A    between atoms: _316  and  _319
REMARK  129  A    between atoms: _319  and  _320
REMARK  130  A    between atoms: _323  and  _325
REMARK  131  A    between atoms: _325  and  _326
REMARK  132  A    between atoms: _325  and  _328
REMARK  133  A    between atoms: _328  and  _329
REMARK  134  A    between atoms: _332  and  _334
REMARK  135  A    between atoms: _334  and  _335
REMARK  136  A    between atoms: _334  and  _337
REMARK  137  A    between atoms: _337  and  _338
REMARK  138  A    between atoms: _341  and  _343
REMARK  139  A    between atoms: _343  and  _344
REMARK  140  A    between atoms: _343  and  _346
REMARK  141  A    between atoms: _346  and  _347
REMARK  142  A    between atoms: _350  and  _352
REMARK  143  A    between atoms: _352  and  _353
REMARK  144  A    between atoms: _352  and  _355
REMARK  145  A    between atoms: _355  and  _356
REMARK  146  A    between atoms: _359  and  _361
REMARK  147  A    between atoms: _361  and  _362
REMARK  148  A    between atoms: _364  and  _366
REMARK  149  A    between atoms: _366  and  _367
REMARK  150  A    between atoms: _370  and  _372
REMARK  151  A    between atoms: _372  and  _373
REMARK  152  A    between atoms: _372  and  _375
REMARK  153  A    between atoms: _375  and  _376
REMARK  154  A    between atoms: _379  and  _381
REMARK  155  A    between atoms: _381  and  _382
REMARK  156  A    between atoms: _381  and  _384
REMARK  157  A    between atoms: _384  and  _385
REMARK  158  A    between atoms: _388  and  _390
REMARK  159  A    between atoms: _390  and  _391
REMARK  160  A    between atoms: _390  and  _393
REMARK  161  A    between atoms: _393  and  _394
REMARK  162  A    between atoms: _397  and  _399
REMARK  163  A    between atoms: _399  and  _400
REMARK  164  A    between atoms: _399  and  _402
REMARK  165  A    between atoms: _402  and  _403
REMARK  166  A    between atoms: _406  and  _408
REMARK  167  A    between atoms: _408  and  _409
REMARK  168  A    between atoms: _408  and  _411
REMARK  169  A    between atoms: _411  and  _412
REMARK  170  A    between atoms: _415  and  _417
REMARK  171  A    between atoms: _417  and  _418
REMARK  172  A    between atoms: _420  and  _422
REMARK  173  A    between atoms: _422  and  _423
REMARK  174  A    between atoms: _425  and  _427
REMARK  175  A    between atoms: _427  and  _428
REMARK  176  A    between atoms: _427  and  _430
REMARK  177  A    between atoms: _430  and  _431
REMARK  178  A    between atoms: _434  and  _436
REMARK  179  A    between atoms: _436  and  _437
REMARK  180  A    between atoms: _439  and  _441
REMARK  181  A    between atoms: _441  and  _442
REMARK  182  A    between atoms: _444  and  _446
REMARK  183  A    between atoms: _446  and  _447
REMARK  184  A    between atoms: _446  and  _449
REMARK  185  A    between atoms: _449  and  _450
REMARK  186  A    between atoms: _456  and  _458
REMARK  187  A    between atoms: _458  and  _459
REMARK  188  A    between atoms: _458  and  _461
REMARK  189  A    between atoms: _461  and  _462
REMARK  190  A    between atoms: _465  and  _467
REMARK  191  A    between atoms: _467  and  _468
REMARK  192  A    between atoms: _467  and  _470
REMARK  193  A    between atoms: _470  and  _471
REMARK  194  A    between atoms: _474  and  _476
REMARK  195  A    between atoms: _476  and  _477
REMARK  196  A    between atoms: _476  and  _479
REMARK  197  A    between atoms: _479  and  _480
REMARK  198  A    between atoms: _484  and  _485
REMARK  199  A    between atoms: _490  and  _492
REMARK  200  A    between atoms: _492  and  _493
REMARK  201  A    between atoms: _492  and  _495
REMARK  202  A    between atoms: _495  and  _496
REMARK  203  A    between atoms: _499  and  _501
REMARK  204  A    between atoms: _501  and  _502
REMARK  205  A    between atoms: _501  and  _504
REMARK  206  A    between atoms: _504  and  _505
REMARK  207  A    between atoms: _510  and  _512
REMARK  208  A    between atoms: _512  and  _513
REMARK  209  A    between atoms: _512  and  _515
REMARK  210  A    between atoms: _518  and  _520
REMARK  211  A    between atoms: _520  and  _521
REMARK  212  A    between atoms: _520  and  _523
REMARK  213  A    between atoms: _523  and  _524
REMARK  214  A    between atoms: _527  and  _529
REMARK  215  A    between atoms: _529  and  _530
REMARK  216  A    between atoms: _532  and  _534
REMARK  217  A    between atoms: _534  and  _535
REMARK  218  A    between atoms: _534  and  _537
REMARK  219  A    between atoms: _537  and  _538
REMARK  220  A    between atoms: _538  and  _539
REMARK  221  A    between atoms: _539  and  _540
REMARK                            x       y       z     vdW  Elec       q    Type
REMARK                         _______ _______ _______ _____ _____    ______ ____
ROOT
ATOM      1  O   HOH     1      23.725  22.365  11.124  0.00  0.00    +0.000 OA
ENDROOT
TORSDOF 0
REMARK  Name = ../refined-set-2016/2o4n/2o4n_pocket.pdb
REMARK  221 active torsions:
REMARK  status: ('A' for Active; 'I' for Inactive)
REMARK    1  A    between atoms: _1  and  _3
REMARK    2  A    between atoms: _3  and  _4
REMARK    3  A    between atoms: _3  and  _6
REMARK    4  A    between atoms: _6  and  _7
REMARK    5  A    between atoms: _7  and  _8
REMARK    6  A    between atoms: _8  and  _9
REMARK    7  A    between atoms: _18  and  _20
REMARK    8  A    between atoms: _20  and  _21
REMARK    9  A    between atoms: _20  and  _23
REMARK   10  A    between atoms: _23  and  _24
REMARK   11  A    between atoms: _27  and  _29
REMARK   12  A    between atoms: _29  and  _30
REMARK   13  A    between atoms: _29  and  _32
REMARK   14  A    between atoms: _32  and  _33
REMARK   15  A    between atoms: _36  and  _38
REMARK   16  A    between atoms: _38  and  _39
REMARK   17  A    between atoms: _38  and  _41
REMARK   18  A    between atoms: _41  and  _42
REMARK   19  A    between atoms: _45  and  _47
REMARK   20  A    between atoms: _47  and  _48
REMARK   21  A    between atoms: _47  and  _50
REMARK   22  A    between atoms: _50  and  _51
REMARK   23  A    between atoms: _54  and  _56
REMARK   24  A    between atoms: _56  and  _57
REMARK   25  A    between atoms: _56  and  _59
REMARK   26  A    between atoms: _59  and  _60
REMARK   27  A    between atoms: _63  and  _65
REMARK   28  A    between atoms: _65  and  _66
REMARK   29  A    between atoms: _68  and  _70
REMARK   30  A    between atoms: _70  and  _71
REMARK   31  A    between atoms: _74  and  _76
REMARK   32  A    between atoms: _76  and  _77
REMARK   33  A    between atoms: _76  and  _79
REMARK   34  A    between atoms: _79  and  _80
REMARK   35  A    between atoms: _83  and  _85
REMARK   36  A    between atoms: _85  and  _86
REMARK   37  A    between atoms: _85  and  _88
REMARK   38  A    between atoms: _88  and  _89
REMARK   39  A    between atoms: _92  and  _94
REMARK   40  A    between atoms: _94  and  _95
REMARK   41  A    between atoms: _94  and  _97
REMARK   42  A    between atoms: _97  and  _98
REMARK   43  A    between atoms: _101  and  _103
REMARK   44  A    between atoms: _103  and  _104
REMARK   45  A    between atoms: _103  and  _106
REMARK   46  A    between atoms: _106  and  _107
REMARK   47  A    between atoms: _110  and  _112
REMARK   48  A    between atoms: _112  and  _113
REMARK   49  A    between atoms: _112  and  _115
REMARK   50  A    between atoms: _115  and  _116
REMARK   51  A    between atoms: _119  and  _121
REMARK   52  A    between atoms: _121  and  _122
REMARK   53  A    between atoms: _121  and  _124
REMARK   54  A    between atoms: _124  and  _125
REMARK   55  A    between atoms: _125  and  _126
REMARK   56  A    between atoms: _128  and  _130
REMARK   57  A    between atoms: _130  and  _131
REMARK   58  A    between atoms: _130  and  _133
REMARK   59  A    between atoms: _133  and  _134
REMARK   60  A    between atoms: _137  and  _139
REMARK   61  A    between atoms: _139  and  _140
REMARK   62  A    between atoms: _142  and  _144
REMARK   63  A    between atoms: _144  and  _145
REMARK   64  A    between atoms: _147  and  _149
REMARK   65  A    between atoms: _149  and  _150
REMARK   66  A    between atoms: _149  and  _152
REMARK   67  A    between atoms: _152  and  _153
REMARK   68  A    between atoms: _156  and  _158
REMARK   69  A    between atoms: _158  and  _159
REMARK   70  A    between atoms: _161  and  _163
REMARK   71  A    between atoms: _163  and  _164
REMARK   72  A    between atoms: _166  and  _168
REMARK   73  A    between atoms: _168  and  _169
REMARK   74  A    between atoms: _168  and  _171
REMARK   75  A    between atoms: _171  and  _172
REMARK   76  A    between atoms: _178  and  _180
REMARK   77  A    between atoms: _180  and  _181
REMARK   78  A    between atoms: _180  and  _183
REMARK   79  A    between atoms: _183  and  _184
REMARK   80  A    between atoms: _187  and  _189
REMARK   81  A    between atoms: _189  and  _190
REMARK   82  A    between atoms: _189  and  _192
REMARK   83  A    between atoms: _195  and  _197
REMARK   84  A    between atoms: _197  and  _198
REMARK   85  A    between atoms: _197  and  _200
REMARK   86  A    between atoms: _200  and  _201
REMARK   87  A    between atoms: _204  and  _206
REMARK   88  A    between atoms: _206  and  _207
REMARK   89  A    between atoms: _206  and  _209
REMARK   90  A    between atoms: _209  and  _210
REMARK   91  A    between atoms: _214  and  _215
REMARK   92  A    between atoms: _220  and  _222
REMARK   93  A    between atoms: _222  and  _223
REMARK   94  A    between atoms: _222  and  _225
REMARK   95  A    between atoms: _225  and  _226
REMARK   96  A    between atoms: _229  and  _231
REMARK   97  A    between atoms: _231  and  _232
REMARK   98  A    between atoms: _231  and  _234
REMARK   99  A    between atoms: _234  and  _235
REMARK  100  A    between atoms: _240  and  _242
REMARK  101  A    between atoms: _242  and  _243
REMARK  102  A    between atoms: _242  and  _245
REMARK  103  A    between atoms: _248  and  _250
REMARK  104  A    between atoms: _250  and  _251
REMARK  105  A    between atoms: _250  and  _253
REMARK  106  A    between atoms: _253  and  _254
REMARK  107  A    between atoms: _257  and  _259
REMARK  108  A    between atoms: _259  and  _260
REMARK  109  A    between atoms: _262  and  _264
REMARK  110  A    between atoms: _264  and  _265
REMARK  111  A    between atoms: _264  and  _267
REMARK  112  A    between atoms: _267  and  _268
REMARK  113  A    between atoms: _268  and  _269
REMARK  114  A    between atoms: _269  and  _270
REMARK  115  A    between atoms: _279  and  _281
REMARK  116  A    between atoms: _281  and  _282
REMARK  117  A    between atoms: _281  and  _284
REMARK  118  A    between atoms: _284  and  _285
REMARK  119  A    between atoms: _290  and  _292
REMARK  120  A    between atoms: _292  and  _293
REMARK  121  A    between atoms: _292  and  _295
REMARK  122  A    between atoms: _295  and  _296
REMARK  123  A    between atoms: _296  and  _297
REMARK  124  A    between atoms: _297  and  _298
REMARK  125  A    between atoms: _308  and  _309
REMARK  126  A    between atoms: _314  and  _316
REMARK  127  A    between atoms: _316  and  _317
REMARK  128  A    between atoms: _316  and  _319
REMARK  129  A    between atoms: _319  and  _320
REMARK  130  A    between atoms: _323  and  _325
REMARK  131  A    between atoms: _325  and  _326
REMARK  132  A    between atoms: _325  and  _328
REMARK  133  A    between atoms: _328  and  _329
REMARK  134  A    between atoms: _332  and  _334
REMARK  135  A    between atoms: _334  and  _335
REMARK  136  A    between atoms: _334  and  _337
REMARK  137  A    between atoms: _337  and  _338
REMARK  138  A    between atoms: _341  and  _343
REMARK  139  A    between atoms: _343  and  _344
REMARK  140  A    between atoms: _343  and  _346
REMARK  141  A    between atoms: _346  and  _347
REMARK  142  A    between atoms: _350  and  _352
REMARK  143  A    between atoms: _352  and  _353
REMARK  144  A    between atoms: _352  and  _355
REMARK  145  A    between atoms: _355  and  _356
REMARK  146  A    between atoms: _359  and  _361
REMARK  147  A    between atoms: _361  and  _362
REMARK  148  A    between atoms: _364  and  _366
REMARK  149  A    between atoms: _366  and  _367
REMARK  150  A    between atoms: _370  and  _372
REMARK  151  A    between atoms: _372  and  _373
REMARK  152  A    between atoms: _372  and  _375
REMARK  153  A    between atoms: _375  and  _376
REMARK  154  A    between atoms: _379  and  _381
REMARK  155  A    between atoms: _381  and  _382
REMARK  156  A    between atoms: _381  and  _384
REMARK  157  A    between atoms: _384  and  _385
REMARK  158  A    between atoms: _388  and  _390
REMARK  159  A    between atoms: _390  and  _391
REMARK  160  A    between atoms: _390  and  _393
REMARK  161  A    between atoms: _393  and  _394
REMARK  162  A    between atoms: _397  and  _399
REMARK  163  A    between atoms: _399  and  _400
REMARK  164  A    between atoms: _399  and  _402
REMARK  165  A    between atoms: _402  and  _403
REMARK  166  A    between atoms: _406  and  _408
REMARK  167  A    between atoms: _408  and  _409
REMARK  168  A    between atoms: _408  and  _411
REMARK  169  A    between atoms: _411  and  _412
REMARK  170  A    between atoms: _415  and  _417
REMARK  171  A    between atoms: _417  and  _418
REMARK  172  A    between atoms: _420  and  _422
REMARK  173  A    between atoms: _422  and  _423
REMARK  174  A    between atoms: _425  and  _427
REMARK  175  A    between atoms: _427  and  _428
REMARK  176  A    between atoms: _427  and  _430
REMARK  177  A    between atoms: _430  and  _431
REMARK  178  A    between atoms: _434  and  _436
REMARK  179  A    between atoms: _436  and  _437
REMARK  180  A    between atoms: _439  and  _441
REMARK  181  A    between atoms: _441  and  _442
REMARK  182  A    between atoms: _444  and  _446
REMARK  183  A    between atoms: _446  and  _447
REMARK  184  A    between atoms: _446  and  _449
REMARK  185  A    between atoms: _449  and  _450
REMARK  186  A    between atoms: _456  and  _458
REMARK  187  A    between atoms: _458  and  _459
REMARK  188  A    between atoms: _458  and  _461
REMARK  189  A    between atoms: _461  and  _462
REMARK  190  A    between atoms: _465  and  _467
REMARK  191  A    between atoms: _467  and  _468
REMARK  192  A    between atoms: _467  and  _470
REMARK  193  A    between atoms: _470  and  _471
REMARK  194  A    between atoms: _474  and  _476
REMARK  195  A    between atoms: _476  and  _477
REMARK  196  A    between atoms: _476  and  _479
REMARK  197  A    between atoms: _479  and  _480
REMARK  198  A    between atoms: _484  and  _485
REMARK  199  A    between atoms: _490  and  _492
REMARK  200  A    between atoms: _492  and  _493
REMARK  201  A    between atoms: _492  and  _495
REMARK  202  A    between atoms: _495  and  _496
REMARK  203  A    between atoms: _499  and  _501
REMARK  204  A    between atoms: _501  and  _502
REMARK  205  A    between atoms: _501  and  _504
REMARK  206  A    between atoms: _504  and  _505
REMARK  207  A    between atoms: _510  and  _512
REMARK  208  A    between atoms: _512  and  _513
REMARK  209  A    between atoms: _512  and  _515
REMARK  210  A    between atoms: _518  and  _520
REMARK  211  A    between atoms: _520  and  _521
REMARK  212  A    between atoms: _520  and  _523
REMARK  213  A    between atoms: _523  and  _524
REMARK  214  A    between atoms: _527  and  _529
REMARK  215  A    between atoms: _529  and  _530
REMARK  216  A    between atoms: _532  and  _534
REMARK  217  A    between atoms: _534  and  _535
REMARK  218  A    between atoms: _534  and  _537
REMARK  219  A    between atoms: _537  and  _538
REMARK  220  A    between atoms: _538  and  _539
REMARK  221  A    between atoms: _539  and  _540
REMARK                            x       y       z     vdW  Elec       q    Type
REMARK                         _______ _______ _______ _____ _____    ______ ____
ROOT
ATOM      1  O   HOH     1      19.796  23.039   6.454  0.00  0.00    +0.000 OA
ENDROOT
TORSDOF 0
REMARK  Name = ../refined-set-2016/2o4n/2o4n_pocket.pdb
REMARK  221 active torsions:
REMARK  status: ('A' for Active; 'I' for Inactive)
REMARK    1  A    between atoms: _1  and  _3
REMARK    2  A    between atoms: _3  and  _4
REMARK    3  A    between atoms: _3  and  _6
REMARK    4  A    between atoms: _6  and  _7
REMARK    5  A    between atoms: _7  and  _8
REMARK    6  A    between atoms: _8  and  _9
REMARK    7  A    between atoms: _18  and  _20
REMARK    8  A    between atoms: _20  and  _21
REMARK    9  A    between atoms: _20  and  _23
REMARK   10  A    between atoms: _23  and  _24
REMARK   11  A    between atoms: _27  and  _29
REMARK   12  A    between atoms: _29  and  _30
REMARK   13  A    between atoms: _29  and  _32
REMARK   14  A    between atoms: _32  and  _33
REMARK   15  A    between atoms: _36  and  _38
REMARK   16  A    between atoms: _38  and  _39
REMARK   17  A    between atoms: _38  and  _41
REMARK   18  A    between atoms: _41  and  _42
REMARK   19  A    between atoms: _45  and  _47
REMARK   20  A    between atoms: _47  and  _48
REMARK   21  A    between atoms: _47  and  _50
REMARK   22  A    between atoms: _50  and  _51
REMARK   23  A    between atoms: _54  and  _56
REMARK   24  A    between atoms: _56  and  _57
REMARK   25  A    between atoms: _56  and  _59
REMARK   26  A    between atoms: _59  and  _60
REMARK   27  A    between atoms: _63  and  _65
REMARK   28  A    between atoms: _65  and  _66
REMARK   29  A    between atoms: _68  and  _70
REMARK   30  A    between atoms: _70  and  _71
REMARK   31  A    between atoms: _74  and  _76
REMARK   32  A    between atoms: _76  and  _77
REMARK   33  A    between atoms: _76  and  _79
REMARK   34  A    between atoms: _79  and  _80
REMARK   35  A    between atoms: _83  and  _85
REMARK   36  A    between atoms: _85  and  _86
REMARK   37  A    between atoms: _85  and  _88
REMARK   38  A    between atoms: _88  and  _89
REMARK   39  A    between atoms: _92  and  _94
REMARK   40  A    between atoms: _94  and  _95
REMARK   41  A    between atoms: _94  and  _97
REMARK   42  A    between atoms: _97  and  _98
REMARK   43  A    between atoms: _101  and  _103
REMARK   44  A    between atoms: _103  and  _104
REMARK   45  A    between atoms: _103  and  _106
REMARK   46  A    between atoms: _106  and  _107
REMARK   47  A    between atoms: _110  and  _112
REMARK   48  A    between atoms: _112  and  _113
REMARK   49  A    between atoms: _112  and  _115
REMARK   50  A    between atoms: _115  and  _116
REMARK   51  A    between atoms: _119  and  _121
REMARK   52  A    between atoms: _121  and  _122
REMARK   53  A    between atoms: _121  and  _124
REMARK   54  A    between atoms: _124  and  _125
REMARK   55  A    between atoms: _125  and  _126
REMARK   56  A    between atoms: _128  and  _130
REMARK   57  A    between atoms: _130  and  _131
REMARK   58  A    between atoms: _130  and  _133
REMARK   59  A    between atoms: _133  and  _134
REMARK   60  A    between atoms: _137  and  _139
REMARK   61  A    between atoms: _139  and  _140
REMARK   62  A    between atoms: _142  and  _144
REMARK   63  A    between atoms: _144  and  _145
REMARK   64  A    between atoms: _147  and  _149
REMARK   65  A    between atoms: _149  and  _150
REMARK   66  A    between atoms: _149  and  _152
REMARK   67  A    between atoms: _152  and  _153
REMARK   68  A    between atoms: _156  and  _158
REMARK   69  A    between atoms: _158  and  _159
REMARK   70  A    between atoms: _161  and  _163
REMARK   71  A    between atoms: _163  and  _164
REMARK   72  A    between atoms: _166  and  _168
REMARK   73  A    between atoms: _168  and  _169
REMARK   74  A    between atoms: _168  and  _171
REMARK   75  A    between atoms: _171  and  _172
REMARK   76  A    between atoms: _178  and  _180
REMARK   77  A    between atoms: _180  and  _181
REMARK   78  A    between atoms: _180  and  _183
REMARK   79  A    between atoms: _183  and  _184
REMARK   80  A    between atoms: _187  and  _189
REMARK   81  A    between atoms: _189  and  _190
REMARK   82  A    between atoms: _189  and  _192
REMARK   83  A    between atoms: _195  and  _197
REMARK   84  A    between atoms: _197  and  _198
REMARK   85  A    between atoms: _197  and  _200
REMARK   86  A    between atoms: _200  and  _201
REMARK   87  A    between atoms: _204  and  _206
REMARK   88  A    between atoms: _206  and  _207
REMARK   89  A    between atoms: _206  and  _209
REMARK   90  A    between atoms: _209  and  _210
REMARK   91  A    between atoms: _214  and  _215
REMARK   92  A    between atoms: _220  and  _222
REMARK   93  A    between atoms: _222  and  _223
REMARK   94  A    between atoms: _222  and  _225
REMARK   95  A    between atoms: _225  and  _226
REMARK   96  A    between atoms: _229  and  _231
REMARK   97  A    between atoms: _231  and  _232
REMARK   98  A    between atoms: _231  and  _234
REMARK   99  A    between atoms: _234  and  _235
REMARK  100  A    between atoms: _240  and  _242
REMARK  101  A    between atoms: _242  and  _243
REMARK  102  A    between atoms: _242  and  _245
REMARK  103  A    between atoms: _248  and  _250
REMARK  104  A    between atoms: _250  and  _251
REMARK  105  A    between atoms: _250  and  _253
REMARK  106  A    between atoms: _253  and  _254
REMARK  107  A    between atoms: _257  and  _259
REMARK  108  A    between atoms: _259  and  _260
REMARK  109  A    between atoms: _262  and  _264
REMARK  110  A    between atoms: _264  and  _265
REMARK  111  A    between atoms: _264  and  _267
REMARK  112  A    between atoms: _267  and  _268
REMARK  113  A    between atoms: _268  and  _269
REMARK  114  A    between atoms: _269  and  _270
REMARK  115  A    between atoms: _279  and  _281
REMARK  116  A    between atoms: _281  and  _282
REMARK  117  A    between atoms: _281  and  _284
REMARK  118  A    between atoms: _284  and  _285
REMARK  119  A    between atoms: _290  and  _292
REMARK  120  A    between atoms: _292  and  _293
REMARK  121  A    between atoms: _292  and  _295
REMARK  122  A    between atoms: _295  and  _296
REMARK  123  A    between atoms: _296  and  _297
REMARK  124  A    between atoms: _297  and  _298
REMARK  125  A    between atoms: _308  and  _309
REMARK  126  A    between atoms: _314  and  _316
REMARK  127  A    between atoms: _316  and  _317
REMARK  128  A    between atoms: _316  and  _319
REMARK  129  A    between atoms: _319  and  _320
REMARK  130  A    between atoms: _323  and  _325
REMARK  131  A    between atoms: _325  and  _326
REMARK  132  A    between atoms: _325  and  _328
REMARK  133  A    between atoms: _328  and  _329
REMARK  134  A    between atoms: _332  and  _334
REMARK  135  A    between atoms: _334  and  _335
REMARK  136  A    between atoms: _334  and  _337
REMARK  137  A    between atoms: _337  and  _338
REMARK  138  A    between atoms: _341  and  _343
REMARK  139  A    between atoms: _343  and  _344
REMARK  140  A    between atoms: _343  and  _346
REMARK  141  A    between atoms: _346  and  _347
REMARK  142  A    between atoms: _350  and  _352
REMARK  143  A    between atoms: _352  and  _353
REMARK  144  A    between atoms: _352  and  _355
REMARK  145  A    between atoms: _355  and  _356
REMARK  146  A    between atoms: _359  and  _361
REMARK  147  A    between atoms: _361  and  _362
REMARK  148  A    between atoms: _364  and  _366
REMARK  149  A    between atoms: _366  and  _367
REMARK  150  A    between atoms: _370  and  _372
REMARK  151  A    between atoms: _372  and  _373
REMARK  152  A    between atoms: _372  and  _375
REMARK  153  A    between atoms: _375  and  _376
REMARK  154  A    between atoms: _379  and  _381
REMARK  155  A    between atoms: _381  and  _382
REMARK  156  A    between atoms: _381  and  _384
REMARK  157  A    between atoms: _384  and  _385
REMARK  158  A    between atoms: _388  and  _390
REMARK  159  A    between atoms: _390  and  _391
REMARK  160  A    between atoms: _390  and  _393
REMARK  161  A    between atoms: _393  and  _394
REMARK  162  A    between atoms: _397  and  _399
REMARK  163  A    between atoms: _399  and  _400
REMARK  164  A    between atoms: _399  and  _402
REMARK  165  A    between atoms: _402  and  _403
REMARK  166  A    between atoms: _406  and  _408
REMARK  167  A    between atoms: _408  and  _409
REMARK  168  A    between atoms: _408  and  _411
REMARK  169  A    between atoms: _411  and  _412
REMARK  170  A    between atoms: _415  and  _417
REMARK  171  A    between atoms: _417  and  _418
REMARK  172  A    between atoms: _420  and  _422
REMARK  173  A    between atoms: _422  and  _423
REMARK  174  A    between atoms: _425  and  _427
REMARK  175  A    between atoms: _427  and  _428
REMARK  176  A    between atoms: _427  and  _430
REMARK  177  A    between atoms: _430  and  _431
REMARK  178  A    between atoms: _434  and  _436
REMARK  179  A    between atoms: _436  and  _437
REMARK  180  A    between atoms: _439  and  _441
REMARK  181  A    between atoms: _441  and  _442
REMARK  182  A    between atoms: _444  and  _446
REMARK  183  A    between atoms: _446  and  _447
REMARK  184  A    between atoms: _446  and  _449
REMARK  185  A    between atoms: _449  and  _450
REMARK  186  A    between atoms: _456  and  _458
REMARK  187  A    between atoms: _458  and  _459
REMARK  188  A    between atoms: _458  and  _461
REMARK  189  A    between atoms: _461  and  _462
REMARK  190  A    between atoms: _465  and  _467
REMARK  191  A    between atoms: _467  and  _468
REMARK  192  A    between atoms: _467  and  _470
REMARK  193  A    between atoms: _470  and  _471
REMARK  194  A    between atoms: _474  and  _476
REMARK  195  A    between atoms: _476  and  _477
REMARK  196  A    between atoms: _476  and  _479
REMARK  197  A    between atoms: _479  and  _480
REMARK  198  A    between atoms: _484  and  _485
REMARK  199  A    between atoms: _490  and  _492
REMARK  200  A    between atoms: _492  and  _493
REMARK  201  A    between atoms: _492  and  _495
REMARK  202  A    between atoms: _495  and  _496
REMARK  203  A    between atoms: _499  and  _501
REMARK  204  A    between atoms: _501  and  _502
REMARK  205  A    between atoms: _501  and  _504
REMARK  206  A    between atoms: _504  and  _505
REMARK  207  A    between atoms: _510  and  _512
REMARK  208  A    between atoms: _512  and  _513
REMARK  209  A    between atoms: _512  and  _515
REMARK  210  A    between atoms: _518  and  _520
REMARK  211  A    between atoms: _520  and  _521
REMARK  212  A    between atoms: _520  and  _523
REMARK  213  A    between atoms: _523  and  _524
REMARK  214  A    between atoms: _527  and  _529
REMARK  215  A    between atoms: _529  and  _530
REMARK  216  A    between atoms: _532  and  _534
REMARK  217  A    between atoms: _534  and  _535
REMARK  218  A    between atoms: _534  and  _537
REMARK  219  A    between atoms: _537  and  _538
REMARK  220  A    between atoms: _538  and  _539
REMARK  221  A    between atoms: _539  and  _540
REMARK                            x       y       z     vdW  Elec       q    Type
REMARK                         _______ _______ _______ _____ _____    ______ ____
ROOT
ATOM      1  O   HOH     1       4.750  12.772  14.553  0.00  0.00    +0.000 OA
ENDROOT
TORSDOF 0
REMARK  Name = ../refined-set-2016/2o4n/2o4n_pocket.pdb
REMARK  221 active torsions:
REMARK  status: ('A' for Active; 'I' for Inactive)
REMARK    1  A    between atoms: _1  and  _3
REMARK    2  A    between atoms: _3  and  _4
REMARK    3  A    between atoms: _3  and  _6
REMARK    4  A    between atoms: _6  and  _7
REMARK    5  A    between atoms: _7  and  _8
REMARK    6  A    between atoms: _8  and  _9
REMARK    7  A    between atoms: _18  and  _20
REMARK    8  A    between atoms: _20  and  _21
REMARK    9  A    between atoms: _20  and  _23
REMARK   10  A    between atoms: _23  and  _24
REMARK   11  A    between atoms: _27  and  _29
REMARK   12  A    between atoms: _29  and  _30
REMARK   13  A    between atoms: _29  and  _32
REMARK   14  A    between atoms: _32  and  _33
REMARK   15  A    between atoms: _36  and  _38
REMARK   16  A    between atoms: _38  and  _39
REMARK   17  A    between atoms: _38  and  _41
REMARK   18  A    between atoms: _41  and  _42
REMARK   19  A    between atoms: _45  and  _47
REMARK   20  A    between atoms: _47  and  _48
REMARK   21  A    between atoms: _47  and  _50
REMARK   22  A    between atoms: _50  and  _51
REMARK   23  A    between atoms: _54  and  _56
REMARK   24  A    between atoms: _56  and  _57
REMARK   25  A    between atoms: _56  and  _59
REMARK   26  A    between atoms: _59  and  _60
REMARK   27  A    between atoms: _63  and  _65
REMARK   28  A    between atoms: _65  and  _66
REMARK   29  A    between atoms: _68  and  _70
REMARK   30  A    between atoms: _70  and  _71
REMARK   31  A    between atoms: _74  and  _76
REMARK   32  A    between atoms: _76  and  _77
REMARK   33  A    between atoms: _76  and  _79
REMARK   34  A    between atoms: _79  and  _80
REMARK   35  A    between atoms: _83  and  _85
REMARK   36  A    between atoms: _85  and  _86
REMARK   37  A    between atoms: _85  and  _88
REMARK   38  A    between atoms: _88  and  _89
REMARK   39  A    between atoms: _92  and  _94
REMARK   40  A    between atoms: _94  and  _95
REMARK   41  A    between atoms: _94  and  _97
REMARK   42  A    between atoms: _97  and  _98
REMARK   43  A    between atoms: _101  and  _103
REMARK   44  A    between atoms: _103  and  _104
REMARK   45  A    between atoms: _103  and  _106
REMARK   46  A    between atoms: _106  and  _107
REMARK   47  A    between atoms: _110  and  _112
REMARK   48  A    between atoms: _112  and  _113
REMARK   49  A    between atoms: _112  and  _115
REMARK   50  A    between atoms: _115  and  _116
REMARK   51  A    between atoms: _119  and  _121
REMARK   52  A    between atoms: _121  and  _122
REMARK   53  A    between atoms: _121  and  _124
REMARK   54  A    between atoms: _124  and  _125
REMARK   55  A    between atoms: _125  and  _126
REMARK   56  A    between atoms: _128  and  _130
REMARK   57  A    between atoms: _130  and  _131
REMARK   58  A    between atoms: _130  and  _133
REMARK   59  A    between atoms: _133  and  _134
REMARK   60  A    between atoms: _137  and  _139
REMARK   61  A    between atoms: _139  and  _140
REMARK   62  A    between atoms: _142  and  _144
REMARK   63  A    between atoms: _144  and  _145
REMARK   64  A    between atoms: _147  and  _149
REMARK   65  A    between atoms: _149  and  _150
REMARK   66  A    between atoms: _149  and  _152
REMARK   67  A    between atoms: _152  and  _153
REMARK   68  A    between atoms: _156  and  _158
REMARK   69  A    between atoms: _158  and  _159
REMARK   70  A    between atoms: _161  and  _163
REMARK   71  A    between atoms: _163  and  _164
REMARK   72  A    between atoms: _166  and  _168
REMARK   73  A    between atoms: _168  and  _169
REMARK   74  A    between atoms: _168  and  _171
REMARK   75  A    between atoms: _171  and  _172
REMARK   76  A    between atoms: _178  and  _180
REMARK   77  A    between atoms: _180  and  _181
REMARK   78  A    between atoms: _180  and  _183
REMARK   79  A    between atoms: _183  and  _184
REMARK   80  A    between atoms: _187  and  _189
REMARK   81  A    between atoms: _189  and  _190
REMARK   82  A    between atoms: _189  and  _192
REMARK   83  A    between atoms: _195  and  _197
REMARK   84  A    between atoms: _197  and  _198
REMARK   85  A    between atoms: _197  and  _200
REMARK   86  A    between atoms: _200  and  _201
REMARK   87  A    between atoms: _204  and  _206
REMARK   88  A    between atoms: _206  and  _207
REMARK   89  A    between atoms: _206  and  _209
REMARK   90  A    between atoms: _209  and  _210
REMARK   91  A    between atoms: _214  and  _215
REMARK   92  A    between atoms: _220  and  _222
REMARK   93  A    between atoms: _222  and  _223
REMARK   94  A    between atoms: _222  and  _225
REMARK   95  A    between atoms: _225  and  _226
REMARK   96  A    between atoms: _229  and  _231
REMARK   97  A    between atoms: _231  and  _232
REMARK   98  A    between atoms: _231  and  _234
REMARK   99  A    between atoms: _234  and  _235
REMARK  100  A    between atoms: _240  and  _242
REMARK  101  A    between atoms: _242  and  _243
REMARK  102  A    between atoms: _242  and  _245
REMARK  103  A    between atoms: _248  and  _250
REMARK  104  A    between atoms: _250  and  _251
REMARK  105  A    between atoms: _250  and  _253
REMARK  106  A    between atoms: _253  and  _254
REMARK  107  A    between atoms: _257  and  _259
REMARK  108  A    between atoms: _259  and  _260
REMARK  109  A    between atoms: _262  and  _264
REMARK  110  A    between atoms: _264  and  _265
REMARK  111  A    between atoms: _264  and  _267
REMARK  112  A    between atoms: _267  and  _268
REMARK  113  A    between atoms: _268  and  _269
REMARK  114  A    between atoms: _269  and  _270
REMARK  115  A    between atoms: _279  and  _281
REMARK  116  A    between atoms: _281  and  _282
REMARK  117  A    between atoms: _281  and  _284
REMARK  118  A    between atoms: _284  and  _285
REMARK  119  A    between atoms: _290  and  _292
REMARK  120  A    between atoms: _292  and  _293
REMARK  121  A    between atoms: _292  and  _295
REMARK  122  A    between atoms: _295  and  _296
REMARK  123  A    between atoms: _296  and  _297
REMARK  124  A    between atoms: _297  and  _298
REMARK  125  A    between atoms: _308  and  _309
REMARK  126  A    between atoms: _314  and  _316
REMARK  127  A    between atoms: _316  and  _317
REMARK  128  A    between atoms: _316  and  _319
REMARK  129  A    between atoms: _319  and  _320
REMARK  130  A    between atoms: _323  and  _325
REMARK  131  A    between atoms: _325  and  _326
REMARK  132  A    between atoms: _325  and  _328
REMARK  133  A    between atoms: _328  and  _329
REMARK  134  A    between atoms: _332  and  _334
REMARK  135  A    between atoms: _334  and  _335
REMARK  136  A    between atoms: _334  and  _337
REMARK  137  A    between atoms: _337  and  _338
REMARK  138  A    between atoms: _341  and  _343
REMARK  139  A    between atoms: _343  and  _344
REMARK  140  A    between atoms: _343  and  _346
REMARK  141  A    between atoms: _346  and  _347
REMARK  142  A    between atoms: _350  and  _352
REMARK  143  A    between atoms: _352  and  _353
REMARK  144  A    between atoms: _352  and  _355
REMARK  145  A    between atoms: _355  and  _356
REMARK  146  A    between atoms: _359  and  _361
REMARK  147  A    between atoms: _361  and  _362
REMARK  148  A    between atoms: _364  and  _366
REMARK  149  A    between atoms: _366  and  _367
REMARK  150  A    between atoms: _370  and  _372
REMARK  151  A    between atoms: _372  and  _373
REMARK  152  A    between atoms: _372  and  _375
REMARK  153  A    between atoms: _375  and  _376
REMARK  154  A    between atoms: _379  and  _381
REMARK  155  A    between atoms: _381  and  _382
REMARK  156  A    between atoms: _381  and  _384
REMARK  157  A    between atoms: _384  and  _385
REMARK  158  A    between atoms: _388  and  _390
REMARK  159  A    between atoms: _390  and  _391
REMARK  160  A    between atoms: _390  and  _393
REMARK  161  A    between atoms: _393  and  _394
REMARK  162  A    between atoms: _397  and  _399
REMARK  163  A    between atoms: _399  and  _400
REMARK  164  A    between atoms: _399  and  _402
REMARK  165  A    between atoms: _402  and  _403
REMARK  166  A    between atoms: _406  and  _408
REMARK  167  A    between atoms: _408  and  _409
REMARK  168  A    between atoms: _408  and  _411
REMARK  169  A    between atoms: _411  and  _412
REMARK  170  A    between atoms: _415  and  _417
REMARK  171  A    between atoms: _417  and  _418
REMARK  172  A    between atoms: _420  and  _422
REMARK  173  A    between atoms: _422  and  _423
REMARK  174  A    between atoms: _425  and  _427
REMARK  175  A    between atoms: _427  and  _428
REMARK  176  A    between atoms: _427  and  _430
REMARK  177  A    between atoms: _430  and  _431
REMARK  178  A    between atoms: _434  and  _436
REMARK  179  A    between atoms: _436  and  _437
REMARK  180  A    between atoms: _439  and  _441
REMARK  181  A    between atoms: _441  and  _442
REMARK  182  A    between atoms: _444  and  _446
REMARK  183  A    between atoms: _446  and  _447
REMARK  184  A    between atoms: _446  and  _449
REMARK  185  A    between atoms: _449  and  _450
REMARK  186  A    between atoms: _456  and  _458
REMARK  187  A    between atoms: _458  and  _459
REMARK  188  A    between atoms: _458  and  _461
REMARK  189  A    between atoms: _461  and  _462
REMARK  190  A    between atoms: _465  and  _467
REMARK  191  A    between atoms: _467  and  _468
REMARK  192  A    between atoms: _467  and  _470
REMARK  193  A    between atoms: _470  and  _471
REMARK  194  A    between atoms: _474  and  _476
REMARK  195  A    between atoms: _476  and  _477
REMARK  196  A    between atoms: _476  and  _479
REMARK  197  A    between atoms: _479  and  _480
REMARK  198  A    between atoms: _484  and  _485
REMARK  199  A    between atoms: _490  and  _492
REMARK  200  A    between atoms: _492  and  _493
REMARK  201  A    between atoms: _492  and  _495
REMARK  202  A    between atoms: _495  and  _496
REMARK  203  A    between atoms: _499  and  _501
REMARK  204  A    between atoms: _501  and  _502
REMARK  205  A    between atoms: _501  and  _504
REMARK  206  A    between atoms: _504  and  _505
REMARK  207  A    between atoms: _510  and  _512
REMARK  208  A    between atoms: _512  and  _513
REMARK  209  A    between atoms: _512  and  _515
REMARK  210  A    between atoms: _518  and  _520
REMARK  211  A    between atoms: _520  and  _521
REMARK  212  A    between atoms: _520  and  _523
REMARK  213  A    between atoms: _523  and  _524
REMARK  214  A    between atoms: _527  and  _529
REMARK  215  A    between atoms: _529  and  _530
REMARK  216  A    between atoms: _532  and  _534
REMARK  217  A    between atoms: _534  and  _535
REMARK  218  A    between atoms: _534  and  _537
REMARK  219  A    between atoms: _537  and  _538
REMARK  220  A    between atoms: _538  and  _539
REMARK  221  A    between atoms: _539  and  _540
REMARK                            x       y       z     vdW  Elec       q    Type
REMARK                         _______ _______ _______ _____ _____    ______ ____
ROOT
ATOM      1  O   HOH     1      -0.030  16.588  15.141  0.00  0.00    +0.000 OA
ENDROOT
TORSDOF 0
REMARK  Name = ../refined-set-2016/2o4n/2o4n_pocket.pdb
REMARK  221 active torsions:
REMARK  status: ('A' for Active; 'I' for Inactive)
REMARK    1  A    between atoms: _1  and  _3
REMARK    2  A    between atoms: _3  and  _4
REMARK    3  A    between atoms: _3  and  _6
REMARK    4  A    between atoms: _6  and  _7
REMARK    5  A    between atoms: _7  and  _8
REMARK    6  A    between atoms: _8  and  _9
REMARK    7  A    between atoms: _18  and  _20
REMARK    8  A    between atoms: _20  and  _21
REMARK    9  A    between atoms: _20  and  _23
REMARK   10  A    between atoms: _23  and  _24
REMARK   11  A    between atoms: _27  and  _29
REMARK   12  A    between atoms: _29  and  _30
REMARK   13  A    between atoms: _29  and  _32
REMARK   14  A    between atoms: _32  and  _33
REMARK   15  A    between atoms: _36  and  _38
REMARK   16  A    between atoms: _38  and  _39
REMARK   17  A    between atoms: _38  and  _41
REMARK   18  A    between atoms: _41  and  _42
REMARK   19  A    between atoms: _45  and  _47
REMARK   20  A    between atoms: _47  and  _48
REMARK   21  A    between atoms: _47  and  _50
REMARK   22  A    between atoms: _50  and  _51
REMARK   23  A    between atoms: _54  and  _56
REMARK   24  A    between atoms: _56  and  _57
REMARK   25  A    between atoms: _56  and  _59
REMARK   26  A    between atoms: _59  and  _60
REMARK   27  A    between atoms: _63  and  _65
REMARK   28  A    between atoms: _65  and  _66
REMARK   29  A    between atoms: _68  and  _70
REMARK   30  A    between atoms: _70  and  _71
REMARK   31  A    between atoms: _74  and  _76
REMARK   32  A    between atoms: _76  and  _77
REMARK   33  A    between atoms: _76  and  _79
REMARK   34  A    between atoms: _79  and  _80
REMARK   35  A    between atoms: _83  and  _85
REMARK   36  A    between atoms: _85  and  _86
REMARK   37  A    between atoms: _85  and  _88
REMARK   38  A    between atoms: _88  and  _89
REMARK   39  A    between atoms: _92  and  _94
REMARK   40  A    between atoms: _94  and  _95
REMARK   41  A    between atoms: _94  and  _97
REMARK   42  A    between atoms: _97  and  _98
REMARK   43  A    between atoms: _101  and  _103
REMARK   44  A    between atoms: _103  and  _104
REMARK   45  A    between atoms: _103  and  _106
REMARK   46  A    between atoms: _106  and  _107
REMARK   47  A    between atoms: _110  and  _112
REMARK   48  A    between atoms: _112  and  _113
REMARK   49  A    between atoms: _112  and  _115
REMARK   50  A    between atoms: _115  and  _116
REMARK   51  A    between atoms: _119  and  _121
REMARK   52  A    between atoms: _121  and  _122
REMARK   53  A    between atoms: _121  and  _124
REMARK   54  A    between atoms: _124  and  _125
REMARK   55  A    between atoms: _125  and  _126
REMARK   56  A    between atoms: _128  and  _130
REMARK   57  A    between atoms: _130  and  _131
REMARK   58  A    between atoms: _130  and  _133
REMARK   59  A    between atoms: _133  and  _134
REMARK   60  A    between atoms: _137  and  _139
REMARK   61  A    between atoms: _139  and  _140
REMARK   62  A    between atoms: _142  and  _144
REMARK   63  A    between atoms: _144  and  _145
REMARK   64  A    between atoms: _147  and  _149
REMARK   65  A    between atoms: _149  and  _150
REMARK   66  A    between atoms: _149  and  _152
REMARK   67  A    between atoms: _152  and  _153
REMARK   68  A    between atoms: _156  and  _158
REMARK   69  A    between atoms: _158  and  _159
REMARK   70  A    between atoms: _161  and  _163
REMARK   71  A    between atoms: _163  and  _164
REMARK   72  A    between atoms: _166  and  _168
REMARK   73  A    between atoms: _168  and  _169
REMARK   74  A    between atoms: _168  and  _171
REMARK   75  A    between atoms: _171  and  _172
REMARK   76  A    between atoms: _178  and  _180
REMARK   77  A    between atoms: _180  and  _181
REMARK   78  A    between atoms: _180  and  _183
REMARK   79  A    between atoms: _183  and  _184
REMARK   80  A    between atoms: _187  and  _189
REMARK   81  A    between atoms: _189  and  _190
REMARK   82  A    between atoms: _189  and  _192
REMARK   83  A    between atoms: _195  and  _197
REMARK   84  A    between atoms: _197  and  _198
REMARK   85  A    between atoms: _197  and  _200
REMARK   86  A    between atoms: _200  and  _201
REMARK   87  A    between atoms: _204  and  _206
REMARK   88  A    between atoms: _206  and  _207
REMARK   89  A    between atoms: _206  and  _209
REMARK   90  A    between atoms: _209  and  _210
REMARK   91  A    between atoms: _214  and  _215
REMARK   92  A    between atoms: _220  and  _222
REMARK   93  A    between atoms: _222  and  _223
REMARK   94  A    between atoms: _222  and  _225
REMARK   95  A    between atoms: _225  and  _226
REMARK   96  A    between atoms: _229  and  _231
REMARK   97  A    between atoms: _231  and  _232
REMARK   98  A    between atoms: _231  and  _234
REMARK   99  A    between atoms: _234  and  _235
REMARK  100  A    between atoms: _240  and  _242
REMARK  101  A    between atoms: _242  and  _243
REMARK  102  A    between atoms: _242  and  _245
REMARK  103  A    between atoms: _248  and  _250
REMARK  104  A    between atoms: _250  and  _251
REMARK  105  A    between atoms: _250  and  _253
REMARK  106  A    between atoms: _253  and  _254
REMARK  107  A    between atoms: _257  and  _259
REMARK  108  A    between atoms: _259  and  _260
REMARK  109  A    between atoms: _262  and  _264
REMARK  110  A    between atoms: _264  and  _265
REMARK  111  A    between atoms: _264  and  _267
REMARK  112  A    between atoms: _267  and  _268
REMARK  113  A    between atoms: _268  and  _269
REMARK  114  A    between atoms: _269  and  _270
REMARK  115  A    between atoms: _279  and  _281
REMARK  116  A    between atoms: _281  and  _282
REMARK  117  A    between atoms: _281  and  _284
REMARK  118  A    between atoms: _284  and  _285
REMARK  119  A    between atoms: _290  and  _292
REMARK  120  A    between atoms: _292  and  _293
REMARK  121  A    between atoms: _292  and  _295
REMARK  122  A    between atoms: _295  and  _296
REMARK  123  A    between atoms: _296  and  _297
REMARK  124  A    between atoms: _297  and  _298
REMARK  125  A    between atoms: _308  and  _309
REMARK  126  A    between atoms: _314  and  _316
REMARK  127  A    between atoms: _316  and  _317
REMARK  128  A    between atoms: _316  and  _319
REMARK  129  A    between atoms: _319  and  _320
REMARK  130  A    between atoms: _323  and  _325
REMARK  131  A    between atoms: _325  and  _326
REMARK  132  A    between atoms: _325  and  _328
REMARK  133  A    between atoms: _328  and  _329
REMARK  134  A    between atoms: _332  and  _334
REMARK  135  A    between atoms: _334  and  _335
REMARK  136  A    between atoms: _334  and  _337
REMARK  137  A    between atoms: _337  and  _338
REMARK  138  A    between atoms: _341  and  _343
REMARK  139  A    between atoms: _343  and  _344
REMARK  140  A    between atoms: _343  and  _346
REMARK  141  A    between atoms: _346  and  _347
REMARK  142  A    between atoms: _350  and  _352
REMARK  143  A    between atoms: _352  and  _353
REMARK  144  A    between atoms: _352  and  _355
REMARK  145  A    between atoms: _355  and  _356
REMARK  146  A    between atoms: _359  and  _361
REMARK  147  A    between atoms: _361  and  _362
REMARK  148  A    between atoms: _364  and  _366
REMARK  149  A    between atoms: _366  and  _367
REMARK  150  A    between atoms: _370  and  _372
REMARK  151  A    between atoms: _372  and  _373
REMARK  152  A    between atoms: _372  and  _375
REMARK  153  A    between atoms: _375  and  _376
REMARK  154  A    between atoms: _379  and  _381
REMARK  155  A    between atoms: _381  and  _382
REMARK  156  A    between atoms: _381  and  _384
REMARK  157  A    between atoms: _384  and  _385
REMARK  158  A    between atoms: _388  and  _390
REMARK  159  A    between atoms: _390  and  _391
REMARK  160  A    between atoms: _390  and  _393
REMARK  161  A    between atoms: _393  and  _394
REMARK  162  A    between atoms: _397  and  _399
REMARK  163  A    between atoms: _399  and  _400
REMARK  164  A    between atoms: _399  and  _402
REMARK  165  A    between atoms: _402  and  _403
REMARK  166  A    between atoms: _406  and  _408
REMARK  167  A    between atoms: _408  and  _409
REMARK  168  A    between atoms: _408  and  _411
REMARK  169  A    between atoms: _411  and  _412
REMARK  170  A    between atoms: _415  and  _417
REMARK  171  A    between atoms: _417  and  _418
REMARK  172  A    between atoms: _420  and  _422
REMARK  173  A    between atoms: _422  and  _423
REMARK  174  A    between atoms: _425  and  _427
REMARK  175  A    between atoms: _427  and  _428
REMARK  176  A    between atoms: _427  and  _430
REMARK  177  A    between atoms: _430  and  _431
REMARK  178  A    between atoms: _434  and  _436
REMARK  179  A    between atoms: _436  and  _437
REMARK  180  A    between atoms: _439  and  _441
REMARK  181  A    between atoms: _441  and  _442
REMARK  182  A    between atoms: _444  and  _446
REMARK  183  A    between atoms: _446  and  _447
REMARK  184  A    between atoms: _446  and  _449
REMARK  185  A    between atoms: _449  and  _450
REMARK  186  A    between atoms: _456  and  _458
REMARK  187  A    between atoms: _458  and  _459
REMARK  188  A    between atoms: _458  and  _461
REMARK  189  A    between atoms: _461  and  _462
REMARK  190  A    between atoms: _465  and  _467
REMARK  191  A    between atoms: _467  and  _468
REMARK  192  A    between atoms: _467  and  _470
REMARK  193  A    between atoms: _470  and  _471
REMARK  194  A    between atoms: _474  and  _476
REMARK  195  A    between atoms: _476  and  _477
REMARK  196  A    between atoms: _476  and  _479
REMARK  197  A    between atoms: _479  and  _480
REMARK  198  A    between atoms: _484  and  _485
REMARK  199  A    between atoms: _490  and  _492
REMARK  200  A    between atoms: _492  and  _493
REMARK  201  A    between atoms: _492  and  _495
REMARK  202  A    between atoms: _495  and  _496
REMARK  203  A    between atoms: _499  and  _501
REMARK  204  A    between atoms: _501  and  _502
REMARK  205  A    between atoms: _501  and  _504
REMARK  206  A    between atoms: _504  and  _505
REMARK  207  A    between atoms: _510  and  _512
REMARK  208  A    between atoms: _512  and  _513
REMARK  209  A    between atoms: _512  and  _515
REMARK  210  A    between atoms: _518  and  _520
REMARK  211  A    between atoms: _520  and  _521
REMARK  212  A    between atoms: _520  and  _523
REMARK  213  A    between atoms: _523  and  _524
REMARK  214  A    between atoms: _527  and  _529
REMARK  215  A    between atoms: _529  and  _530
REMARK  216  A    between atoms: _532  and  _534
REMARK  217  A    between atoms: _534  and  _535
REMARK  218  A    between atoms: _534  and  _537
REMARK  219  A    between atoms: _537  and  _538
REMARK  220  A    between atoms: _538  and  _539
REMARK  221  A    between atoms: _539  and  _540
REMARK                            x       y       z     vdW  Elec       q    Type
REMARK                         _______ _______ _______ _____ _____    ______ ____
ROOT
ATOM      1  O   HOH     1       6.085   8.494  24.756  0.00  0.00    +0.000 OA
ENDROOT
TORSDOF 0
REMARK  Name = ../refined-set-2016/2o4n/2o4n_pocket.pdb
REMARK  221 active torsions:
REMARK  status: ('A' for Active; 'I' for Inactive)
REMARK    1  A    between atoms: _1  and  _3
REMARK    2  A    between atoms: _3  and  _4
REMARK    3  A    between atoms: _3  and  _6
REMARK    4  A    between atoms: _6  and  _7
REMARK    5  A    between atoms: _7  and  _8
REMARK    6  A    between atoms: _8  and  _9
REMARK    7  A    between atoms: _18  and  _20
REMARK    8  A    between atoms: _20  and  _21
REMARK    9  A    between atoms: _20  and  _23
REMARK   10  A    between atoms: _23  and  _24
REMARK   11  A    between atoms: _27  and  _29
REMARK   12  A    between atoms: _29  and  _30
REMARK   13  A    between atoms: _29  and  _32
REMARK   14  A    between atoms: _32  and  _33
REMARK   15  A    between atoms: _36  and  _38
REMARK   16  A    between atoms: _38  and  _39
REMARK   17  A    between atoms: _38  and  _41
REMARK   18  A    between atoms: _41  and  _42
REMARK   19  A    between atoms: _45  and  _47
REMARK   20  A    between atoms: _47  and  _48
REMARK   21  A    between atoms: _47  and  _50
REMARK   22  A    between atoms: _50  and  _51
REMARK   23  A    between atoms: _54  and  _56
REMARK   24  A    between atoms: _56  and  _57
REMARK   25  A    between atoms: _56  and  _59
REMARK   26  A    between atoms: _59  and  _60
REMARK   27  A    between atoms: _63  and  _65
REMARK   28  A    between atoms: _65  and  _66
REMARK   29  A    between atoms: _68  and  _70
REMARK   30  A    between atoms: _70  and  _71
REMARK   31  A    between atoms: _74  and  _76
REMARK   32  A    between atoms: _76  and  _77
REMARK   33  A    between atoms: _76  and  _79
REMARK   34  A    between atoms: _79  and  _80
REMARK   35  A    between atoms: _83  and  _85
REMARK   36  A    between atoms: _85  and  _86
REMARK   37  A    between atoms: _85  and  _88
REMARK   38  A    between atoms: _88  and  _89
REMARK   39  A    between atoms: _92  and  _94
REMARK   40  A    between atoms: _94  and  _95
REMARK   41  A    between atoms: _94  and  _97
REMARK   42  A    between atoms: _97  and  _98
REMARK   43  A    between atoms: _101  and  _103
REMARK   44  A    between atoms: _103  and  _104
REMARK   45  A    between atoms: _103  and  _106
REMARK   46  A    between atoms: _106  and  _107
REMARK   47  A    between atoms: _110  and  _112
REMARK   48  A    between atoms: _112  and  _113
REMARK   49  A    between atoms: _112  and  _115
REMARK   50  A    between atoms: _115  and  _116
REMARK   51  A    between atoms: _119  and  _121
REMARK   52  A    between atoms: _121  and  _122
REMARK   53  A    between atoms: _121  and  _124
REMARK   54  A    between atoms: _124  and  _125
REMARK   55  A    between atoms: _125  and  _126
REMARK   56  A    between atoms: _128  and  _130
REMARK   57  A    between atoms: _130  and  _131
REMARK   58  A    between atoms: _130  and  _133
REMARK   59  A    between atoms: _133  and  _134
REMARK   60  A    between atoms: _137  and  _139
REMARK   61  A    between atoms: _139  and  _140
REMARK   62  A    between atoms: _142  and  _144
REMARK   63  A    between atoms: _144  and  _145
REMARK   64  A    between atoms: _147  and  _149
REMARK   65  A    between atoms: _149  and  _150
REMARK   66  A    between atoms: _149  and  _152
REMARK   67  A    between atoms: _152  and  _153
REMARK   68  A    between atoms: _156  and  _158
REMARK   69  A    between atoms: _158  and  _159
REMARK   70  A    between atoms: _161  and  _163
REMARK   71  A    between atoms: _163  and  _164
REMARK   72  A    between atoms: _166  and  _168
REMARK   73  A    between atoms: _168  and  _169
REMARK   74  A    between atoms: _168  and  _171
REMARK   75  A    between atoms: _171  and  _172
REMARK   76  A    between atoms: _178  and  _180
REMARK   77  A    between atoms: _180  and  _181
REMARK   78  A    between atoms: _180  and  _183
REMARK   79  A    between atoms: _183  and  _184
REMARK   80  A    between atoms: _187  and  _189
REMARK   81  A    between atoms: _189  and  _190
REMARK   82  A    between atoms: _189  and  _192
REMARK   83  A    between atoms: _195  and  _197
REMARK   84  A    between atoms: _197  and  _198
REMARK   85  A    between atoms: _197  and  _200
REMARK   86  A    between atoms: _200  and  _201
REMARK   87  A    between atoms: _204  and  _206
REMARK   88  A    between atoms: _206  and  _207
REMARK   89  A    between atoms: _206  and  _209
REMARK   90  A    between atoms: _209  and  _210
REMARK   91  A    between atoms: _214  and  _215
REMARK   92  A    between atoms: _220  and  _222
REMARK   93  A    between atoms: _222  and  _223
REMARK   94  A    between atoms: _222  and  _225
REMARK   95  A    between atoms: _225  and  _226
REMARK   96  A    between atoms: _229  and  _231
REMARK   97  A    between atoms: _231  and  _232
REMARK   98  A    between atoms: _231  and  _234
REMARK   99  A    between atoms: _234  and  _235
REMARK  100  A    between atoms: _240  and  _242
REMARK  101  A    between atoms: _242  and  _243
REMARK  102  A    between atoms: _242  and  _245
REMARK  103  A    between atoms: _248  and  _250
REMARK  104  A    between atoms: _250  and  _251
REMARK  105  A    between atoms: _250  and  _253
REMARK  106  A    between atoms: _253  and  _254
REMARK  107  A    between atoms: _257  and  _259
REMARK  108  A    between atoms: _259  and  _260
REMARK  109  A    between atoms: _262  and  _264
REMARK  110  A    between atoms: _264  and  _265
REMARK  111  A    between atoms: _264  and  _267
REMARK  112  A    between atoms: _267  and  _268
REMARK  113  A    between atoms: _268  and  _269
REMARK  114  A    between atoms: _269  and  _270
REMARK  115  A    between atoms: _279  and  _281
REMARK  116  A    between atoms: _281  and  _282
REMARK  117  A    between atoms: _281  and  _284
REMARK  118  A    between atoms: _284  and  _285
REMARK  119  A    between atoms: _290  and  _292
REMARK  120  A    between atoms: _292  and  _293
REMARK  121  A    between atoms: _292  and  _295
REMARK  122  A    between atoms: _295  and  _296
REMARK  123  A    between atoms: _296  and  _297
REMARK  124  A    between atoms: _297  and  _298
REMARK  125  A    between atoms: _308  and  _309
REMARK  126  A    between atoms: _314  and  _316
REMARK  127  A    between atoms: _316  and  _317
REMARK  128  A    between atoms: _316  and  _319
REMARK  129  A    between atoms: _319  and  _320
REMARK  130  A    between atoms: _323  and  _325
REMARK  131  A    between atoms: _325  and  _326
REMARK  132  A    between atoms: _325  and  _328
REMARK  133  A    between atoms: _328  and  _329
REMARK  134  A    between atoms: _332  and  _334
REMARK  135  A    between atoms: _334  and  _335
REMARK  136  A    between atoms: _334  and  _337
REMARK  137  A    between atoms: _337  and  _338
REMARK  138  A    between atoms: _341  and  _343
REMARK  139  A    between atoms: _343  and  _344
REMARK  140  A    between atoms: _343  and  _346
REMARK  141  A    between atoms: _346  and  _347
REMARK  142  A    between atoms: _350  and  _352
REMARK  143  A    between atoms: _352  and  _353
REMARK  144  A    between atoms: _352  and  _355
REMARK  145  A    between atoms: _355  and  _356
REMARK  146  A    between atoms: _359  and  _361
REMARK  147  A    between atoms: _361  and  _362
REMARK  148  A    between atoms: _364  and  _366
REMARK  149  A    between atoms: _366  and  _367
REMARK  150  A    between atoms: _370  and  _372
REMARK  151  A    between atoms: _372  and  _373
REMARK  152  A    between atoms: _372  and  _375
REMARK  153  A    between atoms: _375  and  _376
REMARK  154  A    between atoms: _379  and  _381
REMARK  155  A    between atoms: _381  and  _382
REMARK  156  A    between atoms: _381  and  _384
REMARK  157  A    between atoms: _384  and  _385
REMARK  158  A    between atoms: _388  and  _390
REMARK  159  A    between atoms: _390  and  _391
REMARK  160  A    between atoms: _390  and  _393
REMARK  161  A    between atoms: _393  and  _394
REMARK  162  A    between atoms: _397  and  _399
REMARK  163  A    between atoms: _399  and  _400
REMARK  164  A    between atoms: _399  and  _402
REMARK  165  A    between atoms: _402  and  _403
REMARK  166  A    between atoms: _406  and  _408
REMARK  167  A    between atoms: _408  and  _409
REMARK  168  A    between atoms: _408  and  _411
REMARK  169  A    between atoms: _411  and  _412
REMARK  170  A    between atoms: _415  and  _417
REMARK  171  A    between atoms: _417  and  _418
REMARK  172  A    between atoms: _420  and  _422
REMARK  173  A    between atoms: _422  and  _423
REMARK  174  A    between atoms: _425  and  _427
REMARK  175  A    between atoms: _427  and  _428
REMARK  176  A    between atoms: _427  and  _430
REMARK  177  A    between atoms: _430  and  _431
REMARK  178  A    between atoms: _434  and  _436
REMARK  179  A    between atoms: _436  and  _437
REMARK  180  A    between atoms: _439  and  _441
REMARK  181  A    between atoms: _441  and  _442
REMARK  182  A    between atoms: _444  and  _446
REMARK  183  A    between atoms: _446  and  _447
REMARK  184  A    between atoms: _446  and  _449
REMARK  185  A    between atoms: _449  and  _450
REMARK  186  A    between atoms: _456  and  _458
REMARK  187  A    between atoms: _458  and  _459
REMARK  188  A    between atoms: _458  and  _461
REMARK  189  A    between atoms: _461  and  _462
REMARK  190  A    between atoms: _465  and  _467
REMARK  191  A    between atoms: _467  and  _468
REMARK  192  A    between atoms: _467  and  _470
REMARK  193  A    between atoms: _470  and  _471
REMARK  194  A    between atoms: _474  and  _476
REMARK  195  A    between atoms: _476  and  _477
REMARK  196  A    between atoms: _476  and  _479
REMARK  197  A    between atoms: _479  and  _480
REMARK  198  A    between atoms: _484  and  _485
REMARK  199  A    between atoms: _490  and  _492
REMARK  200  A    between atoms: _492  and  _493
REMARK  201  A    between atoms: _492  and  _495
REMARK  202  A    between atoms: _495  and  _496
REMARK  203  A    between atoms: _499  and  _501
REMARK  204  A    between atoms: _501  and  _502
REMARK  205  A    between atoms: _501  and  _504
REMARK  206  A    between atoms: _504  and  _505
REMARK  207  A    between atoms: _510  and  _512
REMARK  208  A    between atoms: _512  and  _513
REMARK  209  A    between atoms: _512  and  _515
REMARK  210  A    between atoms: _518  and  _520
REMARK  211  A    between atoms: _520  and  _521
REMARK  212  A    between atoms: _520  and  _523
REMARK  213  A    between atoms: _523  and  _524
REMARK  214  A    between atoms: _527  and  _529
REMARK  215  A    between atoms: _529  and  _530
REMARK  216  A    between atoms: _532  and  _534
REMARK  217  A    between atoms: _534  and  _535
REMARK  218  A    between atoms: _534  and  _537
REMARK  219  A    between atoms: _537  and  _538
REMARK  220  A    between atoms: _538  and  _539
REMARK  221  A    between atoms: _539  and  _540
REMARK                            x       y       z     vdW  Elec       q    Type
REMARK                         _______ _______ _______ _____ _____    ______ ____
ROOT
ATOM      1  O   HOH     1       7.535  19.808  29.850  0.00  0.00    +0.000 OA
ENDROOT
TORSDOF 0
REMARK  Name = ../refined-set-2016/2o4n/2o4n_pocket.pdb
REMARK  221 active torsions:
REMARK  status: ('A' for Active; 'I' for Inactive)
REMARK    1  A    between atoms: _1  and  _3
REMARK    2  A    between atoms: _3  and  _4
REMARK    3  A    between atoms: _3  and  _6
REMARK    4  A    between atoms: _6  and  _7
REMARK    5  A    between atoms: _7  and  _8
REMARK    6  A    between atoms: _8  and  _9
REMARK    7  A    between atoms: _18  and  _20
REMARK    8  A    between atoms: _20  and  _21
REMARK    9  A    between atoms: _20  and  _23
REMARK   10  A    between atoms: _23  and  _24
REMARK   11  A    between atoms: _27  and  _29
REMARK   12  A    between atoms: _29  and  _30
REMARK   13  A    between atoms: _29  and  _32
REMARK   14  A    between atoms: _32  and  _33
REMARK   15  A    between atoms: _36  and  _38
REMARK   16  A    between atoms: _38  and  _39
REMARK   17  A    between atoms: _38  and  _41
REMARK   18  A    between atoms: _41  and  _42
REMARK   19  A    between atoms: _45  and  _47
REMARK   20  A    between atoms: _47  and  _48
REMARK   21  A    between atoms: _47  and  _50
REMARK   22  A    between atoms: _50  and  _51
REMARK   23  A    between atoms: _54  and  _56
REMARK   24  A    between atoms: _56  and  _57
REMARK   25  A    between atoms: _56  and  _59
REMARK   26  A    between atoms: _59  and  _60
REMARK   27  A    between atoms: _63  and  _65
REMARK   28  A    between atoms: _65  and  _66
REMARK   29  A    between atoms: _68  and  _70
REMARK   30  A    between atoms: _70  and  _71
REMARK   31  A    between atoms: _74  and  _76
REMARK   32  A    between atoms: _76  and  _77
REMARK   33  A    between atoms: _76  and  _79
REMARK   34  A    between atoms: _79  and  _80
REMARK   35  A    between atoms: _83  and  _85
REMARK   36  A    between atoms: _85  and  _86
REMARK   37  A    between atoms: _85  and  _88
REMARK   38  A    between atoms: _88  and  _89
REMARK   39  A    between atoms: _92  and  _94
REMARK   40  A    between atoms: _94  and  _95
REMARK   41  A    between atoms: _94  and  _97
REMARK   42  A    between atoms: _97  and  _98
REMARK   43  A    between atoms: _101  and  _103
REMARK   44  A    between atoms: _103  and  _104
REMARK   45  A    between atoms: _103  and  _106
REMARK   46  A    between atoms: _106  and  _107
REMARK   47  A    between atoms: _110  and  _112
REMARK   48  A    between atoms: _112  and  _113
REMARK   49  A    between atoms: _112  and  _115
REMARK   50  A    between atoms: _115  and  _116
REMARK   51  A    between atoms: _119  and  _121
REMARK   52  A    between atoms: _121  and  _122
REMARK   53  A    between atoms: _121  and  _124
REMARK   54  A    between atoms: _124  and  _125
REMARK   55  A    between atoms: _125  and  _126
REMARK   56  A    between atoms: _128  and  _130
REMARK   57  A    between atoms: _130  and  _131
REMARK   58  A    between atoms: _130  and  _133
REMARK   59  A    between atoms: _133  and  _134
REMARK   60  A    between atoms: _137  and  _139
REMARK   61  A    between atoms: _139  and  _140
REMARK   62  A    between atoms: _142  and  _144
REMARK   63  A    between atoms: _144  and  _145
REMARK   64  A    between atoms: _147  and  _149
REMARK   65  A    between atoms: _149  and  _150
REMARK   66  A    between atoms: _149  and  _152
REMARK   67  A    between atoms: _152  and  _153
REMARK   68  A    between atoms: _156  and  _158
REMARK   69  A    between atoms: _158  and  _159
REMARK   70  A    between atoms: _161  and  _163
REMARK   71  A    between atoms: _163  and  _164
REMARK   72  A    between atoms: _166  and  _168
REMARK   73  A    between atoms: _168  and  _169
REMARK   74  A    between atoms: _168  and  _171
REMARK   75  A    between atoms: _171  and  _172
REMARK   76  A    between atoms: _178  and  _180
REMARK   77  A    between atoms: _180  and  _181
REMARK   78  A    between atoms: _180  and  _183
REMARK   79  A    between atoms: _183  and  _184
REMARK   80  A    between atoms: _187  and  _189
REMARK   81  A    between atoms: _189  and  _190
REMARK   82  A    between atoms: _189  and  _192
REMARK   83  A    between atoms: _195  and  _197
REMARK   84  A    between atoms: _197  and  _198
REMARK   85  A    between atoms: _197  and  _200
REMARK   86  A    between atoms: _200  and  _201
REMARK   87  A    between atoms: _204  and  _206
REMARK   88  A    between atoms: _206  and  _207
REMARK   89  A    between atoms: _206  and  _209
REMARK   90  A    between atoms: _209  and  _210
REMARK   91  A    between atoms: _214  and  _215
REMARK   92  A    between atoms: _220  and  _222
REMARK   93  A    between atoms: _222  and  _223
REMARK   94  A    between atoms: _222  and  _225
REMARK   95  A    between atoms: _225  and  _226
REMARK   96  A    between atoms: _229  and  _231
REMARK   97  A    between atoms: _231  and  _232
REMARK   98  A    between atoms: _231  and  _234
REMARK   99  A    between atoms: _234  and  _235
REMARK  100  A    between atoms: _240  and  _242
REMARK  101  A    between atoms: _242  and  _243
REMARK  102  A    between atoms: _242  and  _245
REMARK  103  A    between atoms: _248  and  _250
REMARK  104  A    between atoms: _250  and  _251
REMARK  105  A    between atoms: _250  and  _253
REMARK  106  A    between atoms: _253  and  _254
REMARK  107  A    between atoms: _257  and  _259
REMARK  108  A    between atoms: _259  and  _260
REMARK  109  A    between atoms: _262  and  _264
REMARK  110  A    between atoms: _264  and  _265
REMARK  111  A    between atoms: _264  and  _267
REMARK  112  A    between atoms: _267  and  _268
REMARK  113  A    between atoms: _268  and  _269
REMARK  114  A    between atoms: _269  and  _270
REMARK  115  A    between atoms: _279  and  _281
REMARK  116  A    between atoms: _281  and  _282
REMARK  117  A    between atoms: _281  and  _284
REMARK  118  A    between atoms: _284  and  _285
REMARK  119  A    between atoms: _290  and  _292
REMARK  120  A    between atoms: _292  and  _293
REMARK  121  A    between atoms: _292  and  _295
REMARK  122  A    between atoms: _295  and  _296
REMARK  123  A    between atoms: _296  and  _297
REMARK  124  A    between atoms: _297  and  _298
REMARK  125  A    between atoms: _308  and  _309
REMARK  126  A    between atoms: _314  and  _316
REMARK  127  A    between atoms: _316  and  _317
REMARK  128  A    between atoms: _316  and  _319
REMARK  129  A    between atoms: _319  and  _320
REMARK  130  A    between atoms: _323  and  _325
REMARK  131  A    between atoms: _325  and  _326
REMARK  132  A    between atoms: _325  and  _328
REMARK  133  A    between atoms: _328  and  _329
REMARK  134  A    between atoms: _332  and  _334
REMARK  135  A    between atoms: _334  and  _335
REMARK  136  A    between atoms: _334  and  _337
REMARK  137  A    between atoms: _337  and  _338
REMARK  138  A    between atoms: _341  and  _343
REMARK  139  A    between atoms: _343  and  _344
REMARK  140  A    between atoms: _343  and  _346
REMARK  141  A    between atoms: _346  and  _347
REMARK  142  A    between atoms: _350  and  _352
REMARK  143  A    between atoms: _352  and  _353
REMARK  144  A    between atoms: _352  and  _355
REMARK  145  A    between atoms: _355  and  _356
REMARK  146  A    between atoms: _359  and  _361
REMARK  147  A    between atoms: _361  and  _362
REMARK  148  A    between atoms: _364  and  _366
REMARK  149  A    between atoms: _366  and  _367
REMARK  150  A    between atoms: _370  and  _372
REMARK  151  A    between atoms: _372  and  _373
REMARK  152  A    between atoms: _372  and  _375
REMARK  153  A    between atoms: _375  and  _376
REMARK  154  A    between atoms: _379  and  _381
REMARK  155  A    between atoms: _381  and  _382
REMARK  156  A    between atoms: _381  and  _384
REMARK  157  A    between atoms: _384  and  _385
REMARK  158  A    between atoms: _388  and  _390
REMARK  159  A    between atoms: _390  and  _391
REMARK  160  A    between atoms: _390  and  _393
REMARK  161  A    between atoms: _393  and  _394
REMARK  162  A    between atoms: _397  and  _399
REMARK  163  A    between atoms: _399  and  _400
REMARK  164  A    between atoms: _399  and  _402
REMARK  165  A    between atoms: _402  and  _403
REMARK  166  A    between atoms: _406  and  _408
REMARK  167  A    between atoms: _408  and  _409
REMARK  168  A    between atoms: _408  and  _411
REMARK  169  A    between atoms: _411  and  _412
REMARK  170  A    between atoms: _415  and  _417
REMARK  171  A    between atoms: _417  and  _418
REMARK  172  A    between atoms: _420  and  _422
REMARK  173  A    between atoms: _422  and  _423
REMARK  174  A    between atoms: _425  and  _427
REMARK  175  A    between atoms: _427  and  _428
REMARK  176  A    between atoms: _427  and  _430
REMARK  177  A    between atoms: _430  and  _431
REMARK  178  A    between atoms: _434  and  _436
REMARK  179  A    between atoms: _436  and  _437
REMARK  180  A    between atoms: _439  and  _441
REMARK  181  A    between atoms: _441  and  _442
REMARK  182  A    between atoms: _444  and  _446
REMARK  183  A    between atoms: _446  and  _447
REMARK  184  A    between atoms: _446  and  _449
REMARK  185  A    between atoms: _449  and  _450
REMARK  186  A    between atoms: _456  and  _458
REMARK  187  A    between atoms: _458  and  _459
REMARK  188  A    between atoms: _458  and  _461
REMARK  189  A    between atoms: _461  and  _462
REMARK  190  A    between atoms: _465  and  _467
REMARK  191  A    between atoms: _467  and  _468
REMARK  192  A    between atoms: _467  and  _470
REMARK  193  A    between atoms: _470  and  _471
REMARK  194  A    between atoms: _474  and  _476
REMARK  195  A    between atoms: _476  and  _477
REMARK  196  A    between atoms: _476  and  _479
REMARK  197  A    between atoms: _479  and  _480
REMARK  198  A    between atoms: _484  and  _485
REMARK  199  A    between atoms: _490  and  _492
REMARK  200  A    between atoms: _492  and  _493
REMARK  201  A    between atoms: _492  and  _495
REMARK  202  A    between atoms: _495  and  _496
REMARK  203  A    between atoms: _499  and  _501
REMARK  204  A    between atoms: _501  and  _502
REMARK  205  A    between atoms: _501  and  _504
REMARK  206  A    between atoms: _504  and  _505
REMARK  207  A    between atoms: _510  and  _512
REMARK  208  A    between atoms: _512  and  _513
REMARK  209  A    between atoms: _512  and  _515
REMARK  210  A    between atoms: _518  and  _520
REMARK  211  A    between atoms: _520  and  _521
REMARK  212  A    between atoms: _520  and  _523
REMARK  213  A    between atoms: _523  and  _524
REMARK  214  A    between atoms: _527  and  _529
REMARK  215  A    between atoms: _529  and  _530
REMARK  216  A    between atoms: _532  and  _534
REMARK  217  A    between atoms: _534  and  _535
REMARK  218  A    between atoms: _534  and  _537
REMARK  219  A    between atoms: _537  and  _538
REMARK  220  A    between atoms: _538  and  _539
REMARK  221  A    between atoms: _539  and  _540
REMARK                            x       y       z     vdW  Elec       q    Type
REMARK                         _______ _______ _______ _____ _____    ______ ____
ROOT
ATOM      1  O   HOH     1      21.921  19.609  18.279  0.00  0.00    +0.000 OA
ENDROOT
TORSDOF 0
REMARK  Name = ../refined-set-2016/2o4n/2o4n_pocket.pdb
REMARK  221 active torsions:
REMARK  status: ('A' for Active; 'I' for Inactive)
REMARK    1  A    between atoms: _1  and  _3
REMARK    2  A    between atoms: _3  and  _4
REMARK    3  A    between atoms: _3  and  _6
REMARK    4  A    between atoms: _6  and  _7
REMARK    5  A    between atoms: _7  and  _8
REMARK    6  A    between atoms: _8  and  _9
REMARK    7  A    between atoms: _18  and  _20
REMARK    8  A    between atoms: _20  and  _21
REMARK    9  A    between atoms: _20  and  _23
REMARK   10  A    between atoms: _23  and  _24
REMARK   11  A    between atoms: _27  and  _29
REMARK   12  A    between atoms: _29  and  _30
REMARK   13  A    between atoms: _29  and  _32
REMARK   14  A    between atoms: _32  and  _33
REMARK   15  A    between atoms: _36  and  _38
REMARK   16  A    between atoms: _38  and  _39
REMARK   17  A    between atoms: _38  and  _41
REMARK   18  A    between atoms: _41  and  _42
REMARK   19  A    between atoms: _45  and  _47
REMARK   20  A    between atoms: _47  and  _48
REMARK   21  A    between atoms: _47  and  _50
REMARK   22  A    between atoms: _50  and  _51
REMARK   23  A    between atoms: _54  and  _56
REMARK   24  A    between atoms: _56  and  _57
REMARK   25  A    between atoms: _56  and  _59
REMARK   26  A    between atoms: _59  and  _60
REMARK   27  A    between atoms: _63  and  _65
REMARK   28  A    between atoms: _65  and  _66
REMARK   29  A    between atoms: _68  and  _70
REMARK   30  A    between atoms: _70  and  _71
REMARK   31  A    between atoms: _74  and  _76
REMARK   32  A    between atoms: _76  and  _77
REMARK   33  A    between atoms: _76  and  _79
REMARK   34  A    between atoms: _79  and  _80
REMARK   35  A    between atoms: _83  and  _85
REMARK   36  A    between atoms: _85  and  _86
REMARK   37  A    between atoms: _85  and  _88
REMARK   38  A    between atoms: _88  and  _89
REMARK   39  A    between atoms: _92  and  _94
REMARK   40  A    between atoms: _94  and  _95
REMARK   41  A    between atoms: _94  and  _97
REMARK   42  A    between atoms: _97  and  _98
REMARK   43  A    between atoms: _101  and  _103
REMARK   44  A    between atoms: _103  and  _104
REMARK   45  A    between atoms: _103  and  _106
REMARK   46  A    between atoms: _106  and  _107
REMARK   47  A    between atoms: _110  and  _112
REMARK   48  A    between atoms: _112  and  _113
REMARK   49  A    between atoms: _112  and  _115
REMARK   50  A    between atoms: _115  and  _116
REMARK   51  A    between atoms: _119  and  _121
REMARK   52  A    between atoms: _121  and  _122
REMARK   53  A    between atoms: _121  and  _124
REMARK   54  A    between atoms: _124  and  _125
REMARK   55  A    between atoms: _125  and  _126
REMARK   56  A    between atoms: _128  and  _130
REMARK   57  A    between atoms: _130  and  _131
REMARK   58  A    between atoms: _130  and  _133
REMARK   59  A    between atoms: _133  and  _134
REMARK   60  A    between atoms: _137  and  _139
REMARK   61  A    between atoms: _139  and  _140
REMARK   62  A    between atoms: _142  and  _144
REMARK   63  A    between atoms: _144  and  _145
REMARK   64  A    between atoms: _147  and  _149
REMARK   65  A    between atoms: _149  and  _150
REMARK   66  A    between atoms: _149  and  _152
REMARK   67  A    between atoms: _152  and  _153
REMARK   68  A    between atoms: _156  and  _158
REMARK   69  A    between atoms: _158  and  _159
REMARK   70  A    between atoms: _161  and  _163
REMARK   71  A    between atoms: _163  and  _164
REMARK   72  A    between atoms: _166  and  _168
REMARK   73  A    between atoms: _168  and  _169
REMARK   74  A    between atoms: _168  and  _171
REMARK   75  A    between atoms: _171  and  _172
REMARK   76  A    between atoms: _178  and  _180
REMARK   77  A    between atoms: _180  and  _181
REMARK   78  A    between atoms: _180  and  _183
REMARK   79  A    between atoms: _183  and  _184
REMARK   80  A    between atoms: _187  and  _189
REMARK   81  A    between atoms: _189  and  _190
REMARK   82  A    between atoms: _189  and  _192
REMARK   83  A    between atoms: _195  and  _197
REMARK   84  A    between atoms: _197  and  _198
REMARK   85  A    between atoms: _197  and  _200
REMARK   86  A    between atoms: _200  and  _201
REMARK   87  A    between atoms: _204  and  _206
REMARK   88  A    between atoms: _206  and  _207
REMARK   89  A    between atoms: _206  and  _209
REMARK   90  A    between atoms: _209  and  _210
REMARK   91  A    between atoms: _214  and  _215
REMARK   92  A    between atoms: _220  and  _222
REMARK   93  A    between atoms: _222  and  _223
REMARK   94  A    between atoms: _222  and  _225
REMARK   95  A    between atoms: _225  and  _226
REMARK   96  A    between atoms: _229  and  _231
REMARK   97  A    between atoms: _231  and  _232
REMARK   98  A    between atoms: _231  and  _234
REMARK   99  A    between atoms: _234  and  _235
REMARK  100  A    between atoms: _240  and  _242
REMARK  101  A    between atoms: _242  and  _243
REMARK  102  A    between atoms: _242  and  _245
REMARK  103  A    between atoms: _248  and  _250
REMARK  104  A    between atoms: _250  and  _251
REMARK  105  A    between atoms: _250  and  _253
REMARK  106  A    between atoms: _253  and  _254
REMARK  107  A    between atoms: _257  and  _259
REMARK  108  A    between atoms: _259  and  _260
REMARK  109  A    between atoms: _262  and  _264
REMARK  110  A    between atoms: _264  and  _265
REMARK  111  A    between atoms: _264  and  _267
REMARK  112  A    between atoms: _267  and  _268
REMARK  113  A    between atoms: _268  and  _269
REMARK  114  A    between atoms: _269  and  _270
REMARK  115  A    between atoms: _279  and  _281
REMARK  116  A    between atoms: _281  and  _282
REMARK  117  A    between atoms: _281  and  _284
REMARK  118  A    between atoms: _284  and  _285
REMARK  119  A    between atoms: _290  and  _292
REMARK  120  A    between atoms: _292  and  _293
REMARK  121  A    between atoms: _292  and  _295
REMARK  122  A    between atoms: _295  and  _296
REMARK  123  A    between atoms: _296  and  _297
REMARK  124  A    between atoms: _297  and  _298
REMARK  125  A    between atoms: _308  and  _309
REMARK  126  A    between atoms: _314  and  _316
REMARK  127  A    between atoms: _316  and  _317
REMARK  128  A    between atoms: _316  and  _319
REMARK  129  A    between atoms: _319  and  _320
REMARK  130  A    between atoms: _323  and  _325
REMARK  131  A    between atoms: _325  and  _326
REMARK  132  A    between atoms: _325  and  _328
REMARK  133  A    between atoms: _328  and  _329
REMARK  134  A    between atoms: _332  and  _334
REMARK  135  A    between atoms: _334  and  _335
REMARK  136  A    between atoms: _334  and  _337
REMARK  137  A    between atoms: _337  and  _338
REMARK  138  A    between atoms: _341  and  _343
REMARK  139  A    between atoms: _343  and  _344
REMARK  140  A    between atoms: _343  and  _346
REMARK  141  A    between atoms: _346  and  _347
REMARK  142  A    between atoms: _350  and  _352
REMARK  143  A    between atoms: _352  and  _353
REMARK  144  A    between atoms: _352  and  _355
REMARK  145  A    between atoms: _355  and  _356
REMARK  146  A    between atoms: _359  and  _361
REMARK  147  A    between atoms: _361  and  _362
REMARK  148  A    between atoms: _364  and  _366
REMARK  149  A    between atoms: _366  and  _367
REMARK  150  A    between atoms: _370  and  _372
REMARK  151  A    between atoms: _372  and  _373
REMARK  152  A    between atoms: _372  and  _375
REMARK  153  A    between atoms: _375  and  _376
REMARK  154  A    between atoms: _379  and  _381
REMARK  155  A    between atoms: _381  and  _382
REMARK  156  A    between atoms: _381  and  _384
REMARK  157  A    between atoms: _384  and  _385
REMARK  158  A    between atoms: _388  and  _390
REMARK  159  A    between atoms: _390  and  _391
REMARK  160  A    between atoms: _390  and  _393
REMARK  161  A    between atoms: _393  and  _394
REMARK  162  A    between atoms: _397  and  _399
REMARK  163  A    between atoms: _399  and  _400
REMARK  164  A    between atoms: _399  and  _402
REMARK  165  A    between atoms: _402  and  _403
REMARK  166  A    between atoms: _406  and  _408
REMARK  167  A    between atoms: _408  and  _409
REMARK  168  A    between atoms: _408  and  _411
REMARK  169  A    between atoms: _411  and  _412
REMARK  170  A    between atoms: _415  and  _417
REMARK  171  A    between atoms: _417  and  _418
REMARK  172  A    between atoms: _420  and  _422
REMARK  173  A    between atoms: _422  and  _423
REMARK  174  A    between atoms: _425  and  _427
REMARK  175  A    between atoms: _427  and  _428
REMARK  176  A    between atoms: _427  and  _430
REMARK  177  A    between atoms: _430  and  _431
REMARK  178  A    between atoms: _434  and  _436
REMARK  179  A    between atoms: _436  and  _437
REMARK  180  A    between atoms: _439  and  _441
REMARK  181  A    between atoms: _441  and  _442
REMARK  182  A    between atoms: _444  and  _446
REMARK  183  A    between atoms: _446  and  _447
REMARK  184  A    between atoms: _446  and  _449
REMARK  185  A    between atoms: _449  and  _450
REMARK  186  A    between atoms: _456  and  _458
REMARK  187  A    between atoms: _458  and  _459
REMARK  188  A    between atoms: _458  and  _461
REMARK  189  A    between atoms: _461  and  _462
REMARK  190  A    between atoms: _465  and  _467
REMARK  191  A    between atoms: _467  and  _468
REMARK  192  A    between atoms: _467  and  _470
REMARK  193  A    between atoms: _470  and  _471
REMARK  194  A    between atoms: _474  and  _476
REMARK  195  A    between atoms: _476  and  _477
REMARK  196  A    between atoms: _476  and  _479
REMARK  197  A    between atoms: _479  and  _480
REMARK  198  A    between atoms: _484  and  _485
REMARK  199  A    between atoms: _490  and  _492
REMARK  200  A    between atoms: _492  and  _493
REMARK  201  A    between atoms: _492  and  _495
REMARK  202  A    between atoms: _495  and  _496
REMARK  203  A    between atoms: _499  and  _501
REMARK  204  A    between atoms: _501  and  _502
REMARK  205  A    between atoms: _501  and  _504
REMARK  206  A    between atoms: _504  and  _505
REMARK  207  A    between atoms: _510  and  _512
REMARK  208  A    between atoms: _512  and  _513
REMARK  209  A    between atoms: _512  and  _515
REMARK  210  A    between atoms: _518  and  _520
REMARK  211  A    between atoms: _520  and  _521
REMARK  212  A    between atoms: _520  and  _523
REMARK  213  A    between atoms: _523  and  _524
REMARK  214  A    between atoms: _527  and  _529
REMARK  215  A    between atoms: _529  and  _530
REMARK  216  A    between atoms: _532  and  _534
REMARK  217  A    between atoms: _534  and  _535
REMARK  218  A    between atoms: _534  and  _537
REMARK  219  A    between atoms: _537  and  _538
REMARK  220  A    between atoms: _538  and  _539
REMARK  221  A    between atoms: _539  and  _540
REMARK                            x       y       z     vdW  Elec       q    Type
REMARK                         _______ _______ _______ _____ _____    ______ ____
ROOT
ATOM      1  O   HOH     1      13.549  27.182  12.019  0.00  0.00    +0.000 OA
ENDROOT
TORSDOF 0
REMARK  Name = ../refined-set-2016/2o4n/2o4n_pocket.pdb
REMARK  221 active torsions:
REMARK  status: ('A' for Active; 'I' for Inactive)
REMARK    1  A    between atoms: _1  and  _3
REMARK    2  A    between atoms: _3  and  _4
REMARK    3  A    between atoms: _3  and  _6
REMARK    4  A    between atoms: _6  and  _7
REMARK    5  A    between atoms: _7  and  _8
REMARK    6  A    between atoms: _8  and  _9
REMARK    7  A    between atoms: _18  and  _20
REMARK    8  A    between atoms: _20  and  _21
REMARK    9  A    between atoms: _20  and  _23
REMARK   10  A    between atoms: _23  and  _24
REMARK   11  A    between atoms: _27  and  _29
REMARK   12  A    between atoms: _29  and  _30
REMARK   13  A    between atoms: _29  and  _32
REMARK   14  A    between atoms: _32  and  _33
REMARK   15  A    between atoms: _36  and  _38
REMARK   16  A    between atoms: _38  and  _39
REMARK   17  A    between atoms: _38  and  _41
REMARK   18  A    between atoms: _41  and  _42
REMARK   19  A    between atoms: _45  and  _47
REMARK   20  A    between atoms: _47  and  _48
REMARK   21  A    between atoms: _47  and  _50
REMARK   22  A    between atoms: _50  and  _51
REMARK   23  A    between atoms: _54  and  _56
REMARK   24  A    between atoms: _56  and  _57
REMARK   25  A    between atoms: _56  and  _59
REMARK   26  A    between atoms: _59  and  _60
REMARK   27  A    between atoms: _63  and  _65
REMARK   28  A    between atoms: _65  and  _66
REMARK   29  A    between atoms: _68  and  _70
REMARK   30  A    between atoms: _70  and  _71
REMARK   31  A    between atoms: _74  and  _76
REMARK   32  A    between atoms: _76  and  _77
REMARK   33  A    between atoms: _76  and  _79
REMARK   34  A    between atoms: _79  and  _80
REMARK   35  A    between atoms: _83  and  _85
REMARK   36  A    between atoms: _85  and  _86
REMARK   37  A    between atoms: _85  and  _88
REMARK   38  A    between atoms: _88  and  _89
REMARK   39  A    between atoms: _92  and  _94
REMARK   40  A    between atoms: _94  and  _95
REMARK   41  A    between atoms: _94  and  _97
REMARK   42  A    between atoms: _97  and  _98
REMARK   43  A    between atoms: _101  and  _103
REMARK   44  A    between atoms: _103  and  _104
REMARK   45  A    between atoms: _103  and  _106
REMARK   46  A    between atoms: _106  and  _107
REMARK   47  A    between atoms: _110  and  _112
REMARK   48  A    between atoms: _112  and  _113
REMARK   49  A    between atoms: _112  and  _115
REMARK   50  A    between atoms: _115  and  _116
REMARK   51  A    between atoms: _119  and  _121
REMARK   52  A    between atoms: _121  and  _122
REMARK   53  A    between atoms: _121  and  _124
REMARK   54  A    between atoms: _124  and  _125
REMARK   55  A    between atoms: _125  and  _126
REMARK   56  A    between atoms: _128  and  _130
REMARK   57  A    between atoms: _130  and  _131
REMARK   58  A    between atoms: _130  and  _133
REMARK   59  A    between atoms: _133  and  _134
REMARK   60  A    between atoms: _137  and  _139
REMARK   61  A    between atoms: _139  and  _140
REMARK   62  A    between atoms: _142  and  _144
REMARK   63  A    between atoms: _144  and  _145
REMARK   64  A    between atoms: _147  and  _149
REMARK   65  A    between atoms: _149  and  _150
REMARK   66  A    between atoms: _149  and  _152
REMARK   67  A    between atoms: _152  and  _153
REMARK   68  A    between atoms: _156  and  _158
REMARK   69  A    between atoms: _158  and  _159
REMARK   70  A    between atoms: _161  and  _163
REMARK   71  A    between atoms: _163  and  _164
REMARK   72  A    between atoms: _166  and  _168
REMARK   73  A    between atoms: _168  and  _169
REMARK   74  A    between atoms: _168  and  _171
REMARK   75  A    between atoms: _171  and  _172
REMARK   76  A    between atoms: _178  and  _180
REMARK   77  A    between atoms: _180  and  _181
REMARK   78  A    between atoms: _180  and  _183
REMARK   79  A    between atoms: _183  and  _184
REMARK   80  A    between atoms: _187  and  _189
REMARK   81  A    between atoms: _189  and  _190
REMARK   82  A    between atoms: _189  and  _192
REMARK   83  A    between atoms: _195  and  _197
REMARK   84  A    between atoms: _197  and  _198
REMARK   85  A    between atoms: _197  and  _200
REMARK   86  A    between atoms: _200  and  _201
REMARK   87  A    between atoms: _204  and  _206
REMARK   88  A    between atoms: _206  and  _207
REMARK   89  A    between atoms: _206  and  _209
REMARK   90  A    between atoms: _209  and  _210
REMARK   91  A    between atoms: _214  and  _215
REMARK   92  A    between atoms: _220  and  _222
REMARK   93  A    between atoms: _222  and  _223
REMARK   94  A    between atoms: _222  and  _225
REMARK   95  A    between atoms: _225  and  _226
REMARK   96  A    between atoms: _229  and  _231
REMARK   97  A    between atoms: _231  and  _232
REMARK   98  A    between atoms: _231  and  _234
REMARK   99  A    between atoms: _234  and  _235
REMARK  100  A    between atoms: _240  and  _242
REMARK  101  A    between atoms: _242  and  _243
REMARK  102  A    between atoms: _242  and  _245
REMARK  103  A    between atoms: _248  and  _250
REMARK  104  A    between atoms: _250  and  _251
REMARK  105  A    between atoms: _250  and  _253
REMARK  106  A    between atoms: _253  and  _254
REMARK  107  A    between atoms: _257  and  _259
REMARK  108  A    between atoms: _259  and  _260
REMARK  109  A    between atoms: _262  and  _264
REMARK  110  A    between atoms: _264  and  _265
REMARK  111  A    between atoms: _264  and  _267
REMARK  112  A    between atoms: _267  and  _268
REMARK  113  A    between atoms: _268  and  _269
REMARK  114  A    between atoms: _269  and  _270
REMARK  115  A    between atoms: _279  and  _281
REMARK  116  A    between atoms: _281  and  _282
REMARK  117  A    between atoms: _281  and  _284
REMARK  118  A    between atoms: _284  and  _285
REMARK  119  A    between atoms: _290  and  _292
REMARK  120  A    between atoms: _292  and  _293
REMARK  121  A    between atoms: _292  and  _295
REMARK  122  A    between atoms: _295  and  _296
REMARK  123  A    between atoms: _296  and  _297
REMARK  124  A    between atoms: _297  and  _298
REMARK  125  A    between atoms: _308  and  _309
REMARK  126  A    between atoms: _314  and  _316
REMARK  127  A    between atoms: _316  and  _317
REMARK  128  A    between atoms: _316  and  _319
REMARK  129  A    between atoms: _319  and  _320
REMARK  130  A    between atoms: _323  and  _325
REMARK  131  A    between atoms: _325  and  _326
REMARK  132  A    between atoms: _325  and  _328
REMARK  133  A    between atoms: _328  and  _329
REMARK  134  A    between atoms: _332  and  _334
REMARK  135  A    between atoms: _334  and  _335
REMARK  136  A    between atoms: _334  and  _337
REMARK  137  A    between atoms: _337  and  _338
REMARK  138  A    between atoms: _341  and  _343
REMARK  139  A    between atoms: _343  and  _344
REMARK  140  A    between atoms: _343  and  _346
REMARK  141  A    between atoms: _346  and  _347
REMARK  142  A    between atoms: _350  and  _352
REMARK  143  A    between atoms: _352  and  _353
REMARK  144  A    between atoms: _352  and  _355
REMARK  145  A    between atoms: _355  and  _356
REMARK  146  A    between atoms: _359  and  _361
REMARK  147  A    between atoms: _361  and  _362
REMARK  148  A    between atoms: _364  and  _366
REMARK  149  A    between atoms: _366  and  _367
REMARK  150  A    between atoms: _370  and  _372
REMARK  151  A    between atoms: _372  and  _373
REMARK  152  A    between atoms: _372  and  _375
REMARK  153  A    between atoms: _375  and  _376
REMARK  154  A    between atoms: _379  and  _381
REMARK  155  A    between atoms: _381  and  _382
REMARK  156  A    between atoms: _381  and  _384
REMARK  157  A    between atoms: _384  and  _385
REMARK  158  A    between atoms: _388  and  _390
REMARK  159  A    between atoms: _390  and  _391
REMARK  160  A    between atoms: _390  and  _393
REMARK  161  A    between atoms: _393  and  _394
REMARK  162  A    between atoms: _397  and  _399
REMARK  163  A    between atoms: _399  and  _400
REMARK  164  A    between atoms: _399  and  _402
REMARK  165  A    between atoms: _402  and  _403
REMARK  166  A    between atoms: _406  and  _408
REMARK  167  A    between atoms: _408  and  _409
REMARK  168  A    between atoms: _408  and  _411
REMARK  169  A    between atoms: _411  and  _412
REMARK  170  A    between atoms: _415  and  _417
REMARK  171  A    between atoms: _417  and  _418
REMARK  172  A    between atoms: _420  and  _422
REMARK  173  A    between atoms: _422  and  _423
REMARK  174  A    between atoms: _425  and  _427
REMARK  175  A    between atoms: _427  and  _428
REMARK  176  A    between atoms: _427  and  _430
REMARK  177  A    between atoms: _430  and  _431
REMARK  178  A    between atoms: _434  and  _436
REMARK  179  A    between atoms: _436  and  _437
REMARK  180  A    between atoms: _439  and  _441
REMARK  181  A    between atoms: _441  and  _442
REMARK  182  A    between atoms: _444  and  _446
REMARK  183  A    between atoms: _446  and  _447
REMARK  184  A    between atoms: _446  and  _449
REMARK  185  A    between atoms: _449  and  _450
REMARK  186  A    between atoms: _456  and  _458
REMARK  187  A    between atoms: _458  and  _459
REMARK  188  A    between atoms: _458  and  _461
REMARK  189  A    between atoms: _461  and  _462
REMARK  190  A    between atoms: _465  and  _467
REMARK  191  A    between atoms: _467  and  _468
REMARK  192  A    between atoms: _467  and  _470
REMARK  193  A    between atoms: _470  and  _471
REMARK  194  A    between atoms: _474  and  _476
REMARK  195  A    between atoms: _476  and  _477
REMARK  196  A    between atoms: _476  and  _479
REMARK  197  A    between atoms: _479  and  _480
REMARK  198  A    between atoms: _484  and  _485
REMARK  199  A    between atoms: _490  and  _492
REMARK  200  A    between atoms: _492  and  _493
REMARK  201  A    between atoms: _492  and  _495
REMARK  202  A    between atoms: _495  and  _496
REMARK  203  A    between atoms: _499  and  _501
REMARK  204  A    between atoms: _501  and  _502
REMARK  205  A    between atoms: _501  and  _504
REMARK  206  A    between atoms: _504  and  _505
REMARK  207  A    between atoms: _510  and  _512
REMARK  208  A    between atoms: _512  and  _513
REMARK  209  A    between atoms: _512  and  _515
REMARK  210  A    between atoms: _518  and  _520
REMARK  211  A    between atoms: _520  and  _521
REMARK  212  A    between atoms: _520  and  _523
REMARK  213  A    between atoms: _523  and  _524
REMARK  214  A    between atoms: _527  and  _529
REMARK  215  A    between atoms: _529  and  _530
REMARK  216  A    between atoms: _532  and  _534
REMARK  217  A    between atoms: _534  and  _535
REMARK  218  A    between atoms: _534  and  _537
REMARK  219  A    between atoms: _537  and  _538
REMARK  220  A    between atoms: _538  and  _539
REMARK  221  A    between atoms: _539  and  _540
REMARK                            x       y       z     vdW  Elec       q    Type
REMARK                         _______ _______ _______ _____ _____    ______ ____
ROOT
ATOM      1  O   HOH     1      20.570  21.521  17.061  0.00  0.00    +0.000 OA
ENDROOT
TORSDOF 0
REMARK  Name = ../refined-set-2016/2o4n/2o4n_pocket.pdb
REMARK  221 active torsions:
REMARK  status: ('A' for Active; 'I' for Inactive)
REMARK    1  A    between atoms: _1  and  _3
REMARK    2  A    between atoms: _3  and  _4
REMARK    3  A    between atoms: _3  and  _6
REMARK    4  A    between atoms: _6  and  _7
REMARK    5  A    between atoms: _7  and  _8
REMARK    6  A    between atoms: _8  and  _9
REMARK    7  A    between atoms: _18  and  _20
REMARK    8  A    between atoms: _20  and  _21
REMARK    9  A    between atoms: _20  and  _23
REMARK   10  A    between atoms: _23  and  _24
REMARK   11  A    between atoms: _27  and  _29
REMARK   12  A    between atoms: _29  and  _30
REMARK   13  A    between atoms: _29  and  _32
REMARK   14  A    between atoms: _32  and  _33
REMARK   15  A    between atoms: _36  and  _38
REMARK   16  A    between atoms: _38  and  _39
REMARK   17  A    between atoms: _38  and  _41
REMARK   18  A    between atoms: _41  and  _42
REMARK   19  A    between atoms: _45  and  _47
REMARK   20  A    between atoms: _47  and  _48
REMARK   21  A    between atoms: _47  and  _50
REMARK   22  A    between atoms: _50  and  _51
REMARK   23  A    between atoms: _54  and  _56
REMARK   24  A    between atoms: _56  and  _57
REMARK   25  A    between atoms: _56  and  _59
REMARK   26  A    between atoms: _59  and  _60
REMARK   27  A    between atoms: _63  and  _65
REMARK   28  A    between atoms: _65  and  _66
REMARK   29  A    between atoms: _68  and  _70
REMARK   30  A    between atoms: _70  and  _71
REMARK   31  A    between atoms: _74  and  _76
REMARK   32  A    between atoms: _76  and  _77
REMARK   33  A    between atoms: _76  and  _79
REMARK   34  A    between atoms: _79  and  _80
REMARK   35  A    between atoms: _83  and  _85
REMARK   36  A    between atoms: _85  and  _86
REMARK   37  A    between atoms: _85  and  _88
REMARK   38  A    between atoms: _88  and  _89
REMARK   39  A    between atoms: _92  and  _94
REMARK   40  A    between atoms: _94  and  _95
REMARK   41  A    between atoms: _94  and  _97
REMARK   42  A    between atoms: _97  and  _98
REMARK   43  A    between atoms: _101  and  _103
REMARK   44  A    between atoms: _103  and  _104
REMARK   45  A    between atoms: _103  and  _106
REMARK   46  A    between atoms: _106  and  _107
REMARK   47  A    between atoms: _110  and  _112
REMARK   48  A    between atoms: _112  and  _113
REMARK   49  A    between atoms: _112  and  _115
REMARK   50  A    between atoms: _115  and  _116
REMARK   51  A    between atoms: _119  and  _121
REMARK   52  A    between atoms: _121  and  _122
REMARK   53  A    between atoms: _121  and  _124
REMARK   54  A    between atoms: _124  and  _125
REMARK   55  A    between atoms: _125  and  _126
REMARK   56  A    between atoms: _128  and  _130
REMARK   57  A    between atoms: _130  and  _131
REMARK   58  A    between atoms: _130  and  _133
REMARK   59  A    between atoms: _133  and  _134
REMARK   60  A    between atoms: _137  and  _139
REMARK   61  A    between atoms: _139  and  _140
REMARK   62  A    between atoms: _142  and  _144
REMARK   63  A    between atoms: _144  and  _145
REMARK   64  A    between atoms: _147  and  _149
REMARK   65  A    between atoms: _149  and  _150
REMARK   66  A    between atoms: _149  and  _152
REMARK   67  A    between atoms: _152  and  _153
REMARK   68  A    between atoms: _156  and  _158
REMARK   69  A    between atoms: _158  and  _159
REMARK   70  A    between atoms: _161  and  _163
REMARK   71  A    between atoms: _163  and  _164
REMARK   72  A    between atoms: _166  and  _168
REMARK   73  A    between atoms: _168  and  _169
REMARK   74  A    between atoms: _168  and  _171
REMARK   75  A    between atoms: _171  and  _172
REMARK   76  A    between atoms: _178  and  _180
REMARK   77  A    between atoms: _180  and  _181
REMARK   78  A    between atoms: _180  and  _183
REMARK   79  A    between atoms: _183  and  _184
REMARK   80  A    between atoms: _187  and  _189
REMARK   81  A    between atoms: _189  and  _190
REMARK   82  A    between atoms: _189  and  _192
REMARK   83  A    between atoms: _195  and  _197
REMARK   84  A    between atoms: _197  and  _198
REMARK   85  A    between atoms: _197  and  _200
REMARK   86  A    between atoms: _200  and  _201
REMARK   87  A    between atoms: _204  and  _206
REMARK   88  A    between atoms: _206  and  _207
REMARK   89  A    between atoms: _206  and  _209
REMARK   90  A    between atoms: _209  and  _210
REMARK   91  A    between atoms: _214  and  _215
REMARK   92  A    between atoms: _220  and  _222
REMARK   93  A    between atoms: _222  and  _223
REMARK   94  A    between atoms: _222  and  _225
REMARK   95  A    between atoms: _225  and  _226
REMARK   96  A    between atoms: _229  and  _231
REMARK   97  A    between atoms: _231  and  _232
REMARK   98  A    between atoms: _231  and  _234
REMARK   99  A    between atoms: _234  and  _235
REMARK  100  A    between atoms: _240  and  _242
REMARK  101  A    between atoms: _242  and  _243
REMARK  102  A    between atoms: _242  and  _245
REMARK  103  A    between atoms: _248  and  _250
REMARK  104  A    between atoms: _250  and  _251
REMARK  105  A    between atoms: _250  and  _253
REMARK  106  A    between atoms: _253  and  _254
REMARK  107  A    between atoms: _257  and  _259
REMARK  108  A    between atoms: _259  and  _260
REMARK  109  A    between atoms: _262  and  _264
REMARK  110  A    between atoms: _264  and  _265
REMARK  111  A    between atoms: _264  and  _267
REMARK  112  A    between atoms: _267  and  _268
REMARK  113  A    between atoms: _268  and  _269
REMARK  114  A    between atoms: _269  and  _270
REMARK  115  A    between atoms: _279  and  _281
REMARK  116  A    between atoms: _281  and  _282
REMARK  117  A    between atoms: _281  and  _284
REMARK  118  A    between atoms: _284  and  _285
REMARK  119  A    between atoms: _290  and  _292
REMARK  120  A    between atoms: _292  and  _293
REMARK  121  A    between atoms: _292  and  _295
REMARK  122  A    between atoms: _295  and  _296
REMARK  123  A    between atoms: _296  and  _297
REMARK  124  A    between atoms: _297  and  _298
REMARK  125  A    between atoms: _308  and  _309
REMARK  126  A    between atoms: _314  and  _316
REMARK  127  A    between atoms: _316  and  _317
REMARK  128  A    between atoms: _316  and  _319
REMARK  129  A    between atoms: _319  and  _320
REMARK  130  A    between atoms: _323  and  _325
REMARK  131  A    between atoms: _325  and  _326
REMARK  132  A    between atoms: _325  and  _328
REMARK  133  A    between atoms: _328  and  _329
REMARK  134  A    between atoms: _332  and  _334
REMARK  135  A    between atoms: _334  and  _335
REMARK  136  A    between atoms: _334  and  _337
REMARK  137  A    between atoms: _337  and  _338
REMARK  138  A    between atoms: _341  and  _343
REMARK  139  A    between atoms: _343  and  _344
REMARK  140  A    between atoms: _343  and  _346
REMARK  141  A    between atoms: _346  and  _347
REMARK  142  A    between atoms: _350  and  _352
REMARK  143  A    between atoms: _352  and  _353
REMARK  144  A    between atoms: _352  and  _355
REMARK  145  A    between atoms: _355  and  _356
REMARK  146  A    between atoms: _359  and  _361
REMARK  147  A    between atoms: _361  and  _362
REMARK  148  A    between atoms: _364  and  _366
REMARK  149  A    between atoms: _366  and  _367
REMARK  150  A    between atoms: _370  and  _372
REMARK  151  A    between atoms: _372  and  _373
REMARK  152  A    between atoms: _372  and  _375
REMARK  153  A    between atoms: _375  and  _376
REMARK  154  A    between atoms: _379  and  _381
REMARK  155  A    between atoms: _381  and  _382
REMARK  156  A    between atoms: _381  and  _384
REMARK  157  A    between atoms: _384  and  _385
REMARK  158  A    between atoms: _388  and  _390
REMARK  159  A    between atoms: _390  and  _391
REMARK  160  A    between atoms: _390  and  _393
REMARK  161  A    between atoms: _393  and  _394
REMARK  162  A    between atoms: _397  and  _399
REMARK  163  A    between atoms: _399  and  _400
REMARK  164  A    between atoms: _399  and  _402
REMARK  165  A    between atoms: _402  and  _403
REMARK  166  A    between atoms: _406  and  _408
REMARK  167  A    between atoms: _408  and  _409
REMARK  168  A    between atoms: _408  and  _411
REMARK  169  A    between atoms: _411  and  _412
REMARK  170  A    between atoms: _415  and  _417
REMARK  171  A    between atoms: _417  and  _418
REMARK  172  A    between atoms: _420  and  _422
REMARK  173  A    between atoms: _422  and  _423
REMARK  174  A    between atoms: _425  and  _427
REMARK  175  A    between atoms: _427  and  _428
REMARK  176  A    between atoms: _427  and  _430
REMARK  177  A    between atoms: _430  and  _431
REMARK  178  A    between atoms: _434  and  _436
REMARK  179  A    between atoms: _436  and  _437
REMARK  180  A    between atoms: _439  and  _441
REMARK  181  A    between atoms: _441  and  _442
REMARK  182  A    between atoms: _444  and  _446
REMARK  183  A    between atoms: _446  and  _447
REMARK  184  A    between atoms: _446  and  _449
REMARK  185  A    between atoms: _449  and  _450
REMARK  186  A    between atoms: _456  and  _458
REMARK  187  A    between atoms: _458  and  _459
REMARK  188  A    between atoms: _458  and  _461
REMARK  189  A    between atoms: _461  and  _462
REMARK  190  A    between atoms: _465  and  _467
REMARK  191  A    between atoms: _467  and  _468
REMARK  192  A    between atoms: _467  and  _470
REMARK  193  A    between atoms: _470  and  _471
REMARK  194  A    between atoms: _474  and  _476
REMARK  195  A    between atoms: _476  and  _477
REMARK  196  A    between atoms: _476  and  _479
REMARK  197  A    between atoms: _479  and  _480
REMARK  198  A    between atoms: _484  and  _485
REMARK  199  A    between atoms: _490  and  _492
REMARK  200  A    between atoms: _492  and  _493
REMARK  201  A    between atoms: _492  and  _495
REMARK  202  A    between atoms: _495  and  _496
REMARK  203  A    between atoms: _499  and  _501
REMARK  204  A    between atoms: _501  and  _502
REMARK  205  A    between atoms: _501  and  _504
REMARK  206  A    between atoms: _504  and  _505
REMARK  207  A    between atoms: _510  and  _512
REMARK  208  A    between atoms: _512  and  _513
REMARK  209  A    between atoms: _512  and  _515
REMARK  210  A    between atoms: _518  and  _520
REMARK  211  A    between atoms: _520  and  _521
REMARK  212  A    between atoms: _520  and  _523
REMARK  213  A    between atoms: _523  and  _524
REMARK  214  A    between atoms: _527  and  _529
REMARK  215  A    between atoms: _529  and  _530
REMARK  216  A    between atoms: _532  and  _534
REMARK  217  A    between atoms: _534  and  _535
REMARK  218  A    between atoms: _534  and  _537
REMARK  219  A    between atoms: _537  and  _538
REMARK  220  A    between atoms: _538  and  _539
REMARK  221  A    between atoms: _539  and  _540
REMARK                            x       y       z     vdW  Elec       q    Type
REMARK                         _______ _______ _______ _____ _____    ______ ____
ROOT
ATOM      1  O   HOH     1       7.103  27.327  20.037  0.00  0.00    +0.000 OA
ENDROOT
TORSDOF 0
REMARK  Name = ../refined-set-2016/2o4n/2o4n_pocket.pdb
REMARK  221 active torsions:
REMARK  status: ('A' for Active; 'I' for Inactive)
REMARK    1  A    between atoms: _1  and  _3
REMARK    2  A    between atoms: _3  and  _4
REMARK    3  A    between atoms: _3  and  _6
REMARK    4  A    between atoms: _6  and  _7
REMARK    5  A    between atoms: _7  and  _8
REMARK    6  A    between atoms: _8  and  _9
REMARK    7  A    between atoms: _18  and  _20
REMARK    8  A    between atoms: _20  and  _21
REMARK    9  A    between atoms: _20  and  _23
REMARK   10  A    between atoms: _23  and  _24
REMARK   11  A    between atoms: _27  and  _29
REMARK   12  A    between atoms: _29  and  _30
REMARK   13  A    between atoms: _29  and  _32
REMARK   14  A    between atoms: _32  and  _33
REMARK   15  A    between atoms: _36  and  _38
REMARK   16  A    between atoms: _38  and  _39
REMARK   17  A    between atoms: _38  and  _41
REMARK   18  A    between atoms: _41  and  _42
REMARK   19  A    between atoms: _45  and  _47
REMARK   20  A    between atoms: _47  and  _48
REMARK   21  A    between atoms: _47  and  _50
REMARK   22  A    between atoms: _50  and  _51
REMARK   23  A    between atoms: _54  and  _56
REMARK   24  A    between atoms: _56  and  _57
REMARK   25  A    between atoms: _56  and  _59
REMARK   26  A    between atoms: _59  and  _60
REMARK   27  A    between atoms: _63  and  _65
REMARK   28  A    between atoms: _65  and  _66
REMARK   29  A    between atoms: _68  and  _70
REMARK   30  A    between atoms: _70  and  _71
REMARK   31  A    between atoms: _74  and  _76
REMARK   32  A    between atoms: _76  and  _77
REMARK   33  A    between atoms: _76  and  _79
REMARK   34  A    between atoms: _79  and  _80
REMARK   35  A    between atoms: _83  and  _85
REMARK   36  A    between atoms: _85  and  _86
REMARK   37  A    between atoms: _85  and  _88
REMARK   38  A    between atoms: _88  and  _89
REMARK   39  A    between atoms: _92  and  _94
REMARK   40  A    between atoms: _94  and  _95
REMARK   41  A    between atoms: _94  and  _97
REMARK   42  A    between atoms: _97  and  _98
REMARK   43  A    between atoms: _101  and  _103
REMARK   44  A    between atoms: _103  and  _104
REMARK   45  A    between atoms: _103  and  _106
REMARK   46  A    between atoms: _106  and  _107
REMARK   47  A    between atoms: _110  and  _112
REMARK   48  A    between atoms: _112  and  _113
REMARK   49  A    between atoms: _112  and  _115
REMARK   50  A    between atoms: _115  and  _116
REMARK   51  A    between atoms: _119  and  _121
REMARK   52  A    between atoms: _121  and  _122
REMARK   53  A    between atoms: _121  and  _124
REMARK   54  A    between atoms: _124  and  _125
REMARK   55  A    between atoms: _125  and  _126
REMARK   56  A    between atoms: _128  and  _130
REMARK   57  A    between atoms: _130  and  _131
REMARK   58  A    between atoms: _130  and  _133
REMARK   59  A    between atoms: _133  and  _134
REMARK   60  A    between atoms: _137  and  _139
REMARK   61  A    between atoms: _139  and  _140
REMARK   62  A    between atoms: _142  and  _144
REMARK   63  A    between atoms: _144  and  _145
REMARK   64  A    between atoms: _147  and  _149
REMARK   65  A    between atoms: _149  and  _150
REMARK   66  A    between atoms: _149  and  _152
REMARK   67  A    between atoms: _152  and  _153
REMARK   68  A    between atoms: _156  and  _158
REMARK   69  A    between atoms: _158  and  _159
REMARK   70  A    between atoms: _161  and  _163
REMARK   71  A    between atoms: _163  and  _164
REMARK   72  A    between atoms: _166  and  _168
REMARK   73  A    between atoms: _168  and  _169
REMARK   74  A    between atoms: _168  and  _171
REMARK   75  A    between atoms: _171  and  _172
REMARK   76  A    between atoms: _178  and  _180
REMARK   77  A    between atoms: _180  and  _181
REMARK   78  A    between atoms: _180  and  _183
REMARK   79  A    between atoms: _183  and  _184
REMARK   80  A    between atoms: _187  and  _189
REMARK   81  A    between atoms: _189  and  _190
REMARK   82  A    between atoms: _189  and  _192
REMARK   83  A    between atoms: _195  and  _197
REMARK   84  A    between atoms: _197  and  _198
REMARK   85  A    between atoms: _197  and  _200
REMARK   86  A    between atoms: _200  and  _201
REMARK   87  A    between atoms: _204  and  _206
REMARK   88  A    between atoms: _206  and  _207
REMARK   89  A    between atoms: _206  and  _209
REMARK   90  A    between atoms: _209  and  _210
REMARK   91  A    between atoms: _214  and  _215
REMARK   92  A    between atoms: _220  and  _222
REMARK   93  A    between atoms: _222  and  _223
REMARK   94  A    between atoms: _222  and  _225
REMARK   95  A    between atoms: _225  and  _226
REMARK   96  A    between atoms: _229  and  _231
REMARK   97  A    between atoms: _231  and  _232
REMARK   98  A    between atoms: _231  and  _234
REMARK   99  A    between atoms: _234  and  _235
REMARK  100  A    between atoms: _240  and  _242
REMARK  101  A    between atoms: _242  and  _243
REMARK  102  A    between atoms: _242  and  _245
REMARK  103  A    between atoms: _248  and  _250
REMARK  104  A    between atoms: _250  and  _251
REMARK  105  A    between atoms: _250  and  _253
REMARK  106  A    between atoms: _253  and  _254
REMARK  107  A    between atoms: _257  and  _259
REMARK  108  A    between atoms: _259  and  _260
REMARK  109  A    between atoms: _262  and  _264
REMARK  110  A    between atoms: _264  and  _265
REMARK  111  A    between atoms: _264  and  _267
REMARK  112  A    between atoms: _267  and  _268
REMARK  113  A    between atoms: _268  and  _269
REMARK  114  A    between atoms: _269  and  _270
REMARK  115  A    between atoms: _279  and  _281
REMARK  116  A    between atoms: _281  and  _282
REMARK  117  A    between atoms: _281  and  _284
REMARK  118  A    between atoms: _284  and  _285
REMARK  119  A    between atoms: _290  and  _292
REMARK  120  A    between atoms: _292  and  _293
REMARK  121  A    between atoms: _292  and  _295
REMARK  122  A    between atoms: _295  and  _296
REMARK  123  A    between atoms: _296  and  _297
REMARK  124  A    between atoms: _297  and  _298
REMARK  125  A    between atoms: _308  and  _309
REMARK  126  A    between atoms: _314  and  _316
REMARK  127  A    between atoms: _316  and  _317
REMARK  128  A    between atoms: _316  and  _319
REMARK  129  A    between atoms: _319  and  _320
REMARK  130  A    between atoms: _323  and  _325
REMARK  131  A    between atoms: _325  and  _326
REMARK  132  A    between atoms: _325  and  _328
REMARK  133  A    between atoms: _328  and  _329
REMARK  134  A    between atoms: _332  and  _334
REMARK  135  A    between atoms: _334  and  _335
REMARK  136  A    between atoms: _334  and  _337
REMARK  137  A    between atoms: _337  and  _338
REMARK  138  A    between atoms: _341  and  _343
REMARK  139  A    between atoms: _343  and  _344
REMARK  140  A    between atoms: _343  and  _346
REMARK  141  A    between atoms: _346  and  _347
REMARK  142  A    between atoms: _350  and  _352
REMARK  143  A    between atoms: _352  and  _353
REMARK  144  A    between atoms: _352  and  _355
REMARK  145  A    between atoms: _355  and  _356
REMARK  146  A    between atoms: _359  and  _361
REMARK  147  A    between atoms: _361  and  _362
REMARK  148  A    between atoms: _364  and  _366
REMARK  149  A    between atoms: _366  and  _367
REMARK  150  A    between atoms: _370  and  _372
REMARK  151  A    between atoms: _372  and  _373
REMARK  152  A    between atoms: _372  and  _375
REMARK  153  A    between atoms: _375  and  _376
REMARK  154  A    between atoms: _379  and  _381
REMARK  155  A    between atoms: _381  and  _382
REMARK  156  A    between atoms: _381  and  _384
REMARK  157  A    between atoms: _384  and  _385
REMARK  158  A    between atoms: _388  and  _390
REMARK  159  A    between atoms: _390  and  _391
REMARK  160  A    between atoms: _390  and  _393
REMARK  161  A    between atoms: _393  and  _394
REMARK  162  A    between atoms: _397  and  _399
REMARK  163  A    between atoms: _399  and  _400
REMARK  164  A    between atoms: _399  and  _402
REMARK  165  A    between atoms: _402  and  _403
REMARK  166  A    between atoms: _406  and  _408
REMARK  167  A    between atoms: _408  and  _409
REMARK  168  A    between atoms: _408  and  _411
REMARK  169  A    between atoms: _411  and  _412
REMARK  170  A    between atoms: _415  and  _417
REMARK  171  A    between atoms: _417  and  _418
REMARK  172  A    between atoms: _420  and  _422
REMARK  173  A    between atoms: _422  and  _423
REMARK  174  A    between atoms: _425  and  _427
REMARK  175  A    between atoms: _427  and  _428
REMARK  176  A    between atoms: _427  and  _430
REMARK  177  A    between atoms: _430  and  _431
REMARK  178  A    between atoms: _434  and  _436
REMARK  179  A    between atoms: _436  and  _437
REMARK  180  A    between atoms: _439  and  _441
REMARK  181  A    between atoms: _441  and  _442
REMARK  182  A    between atoms: _444  and  _446
REMARK  183  A    between atoms: _446  and  _447
REMARK  184  A    between atoms: _446  and  _449
REMARK  185  A    between atoms: _449  and  _450
REMARK  186  A    between atoms: _456  and  _458
REMARK  187  A    between atoms: _458  and  _459
REMARK  188  A    between atoms: _458  and  _461
REMARK  189  A    between atoms: _461  and  _462
REMARK  190  A    between atoms: _465  and  _467
REMARK  191  A    between atoms: _467  and  _468
REMARK  192  A    between atoms: _467  and  _470
REMARK  193  A    between atoms: _470  and  _471
REMARK  194  A    between atoms: _474  and  _476
REMARK  195  A    between atoms: _476  and  _477
REMARK  196  A    between atoms: _476  and  _479
REMARK  197  A    between atoms: _479  and  _480
REMARK  198  A    between atoms: _484  and  _485
REMARK  199  A    between atoms: _490  and  _492
REMARK  200  A    between atoms: _492  and  _493
REMARK  201  A    between atoms: _492  and  _495
REMARK  202  A    between atoms: _495  and  _496
REMARK  203  A    between atoms: _499  and  _501
REMARK  204  A    between atoms: _501  and  _502
REMARK  205  A    between atoms: _501  and  _504
REMARK  206  A    between atoms: _504  and  _505
REMARK  207  A    between atoms: _510  and  _512
REMARK  208  A    between atoms: _512  and  _513
REMARK  209  A    between atoms: _512  and  _515
REMARK  210  A    between atoms: _518  and  _520
REMARK  211  A    between atoms: _520  and  _521
REMARK  212  A    between atoms: _520  and  _523
REMARK  213  A    between atoms: _523  and  _524
REMARK  214  A    between atoms: _527  and  _529
REMARK  215  A    between atoms: _529  and  _530
REMARK  216  A    between atoms: _532  and  _534
REMARK  217  A    between atoms: _534  and  _535
REMARK  218  A    between atoms: _534  and  _537
REMARK  219  A    between atoms: _537  and  _538
REMARK  220  A    between atoms: _538  and  _539
REMARK  221  A    between atoms: _539  and  _540
REMARK                            x       y       z     vdW  Elec       q    Type
REMARK                         _______ _______ _______ _____ _____    ______ ____
ROOT
ATOM      1  O   HOH     1      17.821  26.081  20.512  0.00  0.00    +0.000 OA
ENDROOT
TORSDOF 0
REMARK  Name = ../refined-set-2016/2o4n/2o4n_pocket.pdb
REMARK  221 active torsions:
REMARK  status: ('A' for Active; 'I' for Inactive)
REMARK    1  A    between atoms: _1  and  _3
REMARK    2  A    between atoms: _3  and  _4
REMARK    3  A    between atoms: _3  and  _6
REMARK    4  A    between atoms: _6  and  _7
REMARK    5  A    between atoms: _7  and  _8
REMARK    6  A    between atoms: _8  and  _9
REMARK    7  A    between atoms: _18  and  _20
REMARK    8  A    between atoms: _20  and  _21
REMARK    9  A    between atoms: _20  and  _23
REMARK   10  A    between atoms: _23  and  _24
REMARK   11  A    between atoms: _27  and  _29
REMARK   12  A    between atoms: _29  and  _30
REMARK   13  A    between atoms: _29  and  _32
REMARK   14  A    between atoms: _32  and  _33
REMARK   15  A    between atoms: _36  and  _38
REMARK   16  A    between atoms: _38  and  _39
REMARK   17  A    between atoms: _38  and  _41
REMARK   18  A    between atoms: _41  and  _42
REMARK   19  A    between atoms: _45  and  _47
REMARK   20  A    between atoms: _47  and  _48
REMARK   21  A    between atoms: _47  and  _50
REMARK   22  A    between atoms: _50  and  _51
REMARK   23  A    between atoms: _54  and  _56
REMARK   24  A    between atoms: _56  and  _57
REMARK   25  A    between atoms: _56  and  _59
REMARK   26  A    between atoms: _59  and  _60
REMARK   27  A    between atoms: _63  and  _65
REMARK   28  A    between atoms: _65  and  _66
REMARK   29  A    between atoms: _68  and  _70
REMARK   30  A    between atoms: _70  and  _71
REMARK   31  A    between atoms: _74  and  _76
REMARK   32  A    between atoms: _76  and  _77
REMARK   33  A    between atoms: _76  and  _79
REMARK   34  A    between atoms: _79  and  _80
REMARK   35  A    between atoms: _83  and  _85
REMARK   36  A    between atoms: _85  and  _86
REMARK   37  A    between atoms: _85  and  _88
REMARK   38  A    between atoms: _88  and  _89
REMARK   39  A    between atoms: _92  and  _94
REMARK   40  A    between atoms: _94  and  _95
REMARK   41  A    between atoms: _94  and  _97
REMARK   42  A    between atoms: _97  and  _98
REMARK   43  A    between atoms: _101  and  _103
REMARK   44  A    between atoms: _103  and  _104
REMARK   45  A    between atoms: _103  and  _106
REMARK   46  A    between atoms: _106  and  _107
REMARK   47  A    between atoms: _110  and  _112
REMARK   48  A    between atoms: _112  and  _113
REMARK   49  A    between atoms: _112  and  _115
REMARK   50  A    between atoms: _115  and  _116
REMARK   51  A    between atoms: _119  and  _121
REMARK   52  A    between atoms: _121  and  _122
REMARK   53  A    between atoms: _121  and  _124
REMARK   54  A    between atoms: _124  and  _125
REMARK   55  A    between atoms: _125  and  _126
REMARK   56  A    between atoms: _128  and  _130
REMARK   57  A    between atoms: _130  and  _131
REMARK   58  A    between atoms: _130  and  _133
REMARK   59  A    between atoms: _133  and  _134
REMARK   60  A    between atoms: _137  and  _139
REMARK   61  A    between atoms: _139  and  _140
REMARK   62  A    between atoms: _142  and  _144
REMARK   63  A    between atoms: _144  and  _145
REMARK   64  A    between atoms: _147  and  _149
REMARK   65  A    between atoms: _149  and  _150
REMARK   66  A    between atoms: _149  and  _152
REMARK   67  A    between atoms: _152  and  _153
REMARK   68  A    between atoms: _156  and  _158
REMARK   69  A    between atoms: _158  and  _159
REMARK   70  A    between atoms: _161  and  _163
REMARK   71  A    between atoms: _163  and  _164
REMARK   72  A    between atoms: _166  and  _168
REMARK   73  A    between atoms: _168  and  _169
REMARK   74  A    between atoms: _168  and  _171
REMARK   75  A    between atoms: _171  and  _172
REMARK   76  A    between atoms: _178  and  _180
REMARK   77  A    between atoms: _180  and  _181
REMARK   78  A    between atoms: _180  and  _183
REMARK   79  A    between atoms: _183  and  _184
REMARK   80  A    between atoms: _187  and  _189
REMARK   81  A    between atoms: _189  and  _190
REMARK   82  A    between atoms: _189  and  _192
REMARK   83  A    between atoms: _195  and  _197
REMARK   84  A    between atoms: _197  and  _198
REMARK   85  A    between atoms: _197  and  _200
REMARK   86  A    between atoms: _200  and  _201
REMARK   87  A    between atoms: _204  and  _206
REMARK   88  A    between atoms: _206  and  _207
REMARK   89  A    between atoms: _206  and  _209
REMARK   90  A    between atoms: _209  and  _210
REMARK   91  A    between atoms: _214  and  _215
REMARK   92  A    between atoms: _220  and  _222
REMARK   93  A    between atoms: _222  and  _223
REMARK   94  A    between atoms: _222  and  _225
REMARK   95  A    between atoms: _225  and  _226
REMARK   96  A    between atoms: _229  and  _231
REMARK   97  A    between atoms: _231  and  _232
REMARK   98  A    between atoms: _231  and  _234
REMARK   99  A    between atoms: _234  and  _235
REMARK  100  A    between atoms: _240  and  _242
REMARK  101  A    between atoms: _242  and  _243
REMARK  102  A    between atoms: _242  and  _245
REMARK  103  A    between atoms: _248  and  _250
REMARK  104  A    between atoms: _250  and  _251
REMARK  105  A    between atoms: _250  and  _253
REMARK  106  A    between atoms: _253  and  _254
REMARK  107  A    between atoms: _257  and  _259
REMARK  108  A    between atoms: _259  and  _260
REMARK  109  A    between atoms: _262  and  _264
REMARK  110  A    between atoms: _264  and  _265
REMARK  111  A    between atoms: _264  and  _267
REMARK  112  A    between atoms: _267  and  _268
REMARK  113  A    between atoms: _268  and  _269
REMARK  114  A    between atoms: _269  and  _270
REMARK  115  A    between atoms: _279  and  _281
REMARK  116  A    between atoms: _281  and  _282
REMARK  117  A    between atoms: _281  and  _284
REMARK  118  A    between atoms: _284  and  _285
REMARK  119  A    between atoms: _290  and  _292
REMARK  120  A    between atoms: _292  and  _293
REMARK  121  A    between atoms: _292  and  _295
REMARK  122  A    between atoms: _295  and  _296
REMARK  123  A    between atoms: _296  and  _297
REMARK  124  A    between atoms: _297  and  _298
REMARK  125  A    between atoms: _308  and  _309
REMARK  126  A    between atoms: _314  and  _316
REMARK  127  A    between atoms: _316  and  _317
REMARK  128  A    between atoms: _316  and  _319
REMARK  129  A    between atoms: _319  and  _320
REMARK  130  A    between atoms: _323  and  _325
REMARK  131  A    between atoms: _325  and  _326
REMARK  132  A    between atoms: _325  and  _328
REMARK  133  A    between atoms: _328  and  _329
REMARK  134  A    between atoms: _332  and  _334
REMARK  135  A    between atoms: _334  and  _335
REMARK  136  A    between atoms: _334  and  _337
REMARK  137  A    between atoms: _337  and  _338
REMARK  138  A    between atoms: _341  and  _343
REMARK  139  A    between atoms: _343  and  _344
REMARK  140  A    between atoms: _343  and  _346
REMARK  141  A    between atoms: _346  and  _347
REMARK  142  A    between atoms: _350  and  _352
REMARK  143  A    between atoms: _352  and  _353
REMARK  144  A    between atoms: _352  and  _355
REMARK  145  A    between atoms: _355  and  _356
REMARK  146  A    between atoms: _359  and  _361
REMARK  147  A    between atoms: _361  and  _362
REMARK  148  A    between atoms: _364  and  _366
REMARK  149  A    between atoms: _366  and  _367
REMARK  150  A    between atoms: _370  and  _372
REMARK  151  A    between atoms: _372  and  _373
REMARK  152  A    between atoms: _372  and  _375
REMARK  153  A    between atoms: _375  and  _376
REMARK  154  A    between atoms: _379  and  _381
REMARK  155  A    between atoms: _381  and  _382
REMARK  156  A    between atoms: _381  and  _384
REMARK  157  A    between atoms: _384  and  _385
REMARK  158  A    between atoms: _388  and  _390
REMARK  159  A    between atoms: _390  and  _391
REMARK  160  A    between atoms: _390  and  _393
REMARK  161  A    between atoms: _393  and  _394
REMARK  162  A    between atoms: _397  and  _399
REMARK  163  A    between atoms: _399  and  _400
REMARK  164  A    between atoms: _399  and  _402
REMARK  165  A    between atoms: _402  and  _403
REMARK  166  A    between atoms: _406  and  _408
REMARK  167  A    between atoms: _408  and  _409
REMARK  168  A    between atoms: _408  and  _411
REMARK  169  A    between atoms: _411  and  _412
REMARK  170  A    between atoms: _415  and  _417
REMARK  171  A    between atoms: _417  and  _418
REMARK  172  A    between atoms: _420  and  _422
REMARK  173  A    between atoms: _422  and  _423
REMARK  174  A    between atoms: _425  and  _427
REMARK  175  A    between atoms: _427  and  _428
REMARK  176  A    between atoms: _427  and  _430
REMARK  177  A    between atoms: _430  and  _431
REMARK  178  A    between atoms: _434  and  _436
REMARK  179  A    between atoms: _436  and  _437
REMARK  180  A    between atoms: _439  and  _441
REMARK  181  A    between atoms: _441  and  _442
REMARK  182  A    between atoms: _444  and  _446
REMARK  183  A    between atoms: _446  and  _447
REMARK  184  A    between atoms: _446  and  _449
REMARK  185  A    between atoms: _449  and  _450
REMARK  186  A    between atoms: _456  and  _458
REMARK  187  A    between atoms: _458  and  _459
REMARK  188  A    between atoms: _458  and  _461
REMARK  189  A    between atoms: _461  and  _462
REMARK  190  A    between atoms: _465  and  _467
REMARK  191  A    between atoms: _467  and  _468
REMARK  192  A    between atoms: _467  and  _470
REMARK  193  A    between atoms: _470  and  _471
REMARK  194  A    between atoms: _474  and  _476
REMARK  195  A    between atoms: _476  and  _477
REMARK  196  A    between atoms: _476  and  _479
REMARK  197  A    between atoms: _479  and  _480
REMARK  198  A    between atoms: _484  and  _485
REMARK  199  A    between atoms: _490  and  _492
REMARK  200  A    between atoms: _492  and  _493
REMARK  201  A    between atoms: _492  and  _495
REMARK  202  A    between atoms: _495  and  _496
REMARK  203  A    between atoms: _499  and  _501
REMARK  204  A    between atoms: _501  and  _502
REMARK  205  A    between atoms: _501  and  _504
REMARK  206  A    between atoms: _504  and  _505
REMARK  207  A    between atoms: _510  and  _512
REMARK  208  A    between atoms: _512  and  _513
REMARK  209  A    between atoms: _512  and  _515
REMARK  210  A    between atoms: _518  and  _520
REMARK  211  A    between atoms: _520  and  _521
REMARK  212  A    between atoms: _520  and  _523
REMARK  213  A    between atoms: _523  and  _524
REMARK  214  A    between atoms: _527  and  _529
REMARK  215  A    between atoms: _529  and  _530
REMARK  216  A    between atoms: _532  and  _534
REMARK  217  A    between atoms: _534  and  _535
REMARK  218  A    between atoms: _534  and  _537
REMARK  219  A    between atoms: _537  and  _538
REMARK  220  A    between atoms: _538  and  _539
REMARK  221  A    between atoms: _539  and  _540
REMARK                            x       y       z     vdW  Elec       q    Type
REMARK                         _______ _______ _______ _____ _____    ______ ____
ROOT
ATOM      1  O   HOH     1      18.054  28.792  13.255  0.00  0.00    +0.000 OA
ENDROOT
TORSDOF 0
REMARK  Name = ../refined-set-2016/2o4n/2o4n_pocket.pdb
REMARK  221 active torsions:
REMARK  status: ('A' for Active; 'I' for Inactive)
REMARK    1  A    between atoms: _1  and  _3
REMARK    2  A    between atoms: _3  and  _4
REMARK    3  A    between atoms: _3  and  _6
REMARK    4  A    between atoms: _6  and  _7
REMARK    5  A    between atoms: _7  and  _8
REMARK    6  A    between atoms: _8  and  _9
REMARK    7  A    between atoms: _18  and  _20
REMARK    8  A    between atoms: _20  and  _21
REMARK    9  A    between atoms: _20  and  _23
REMARK   10  A    between atoms: _23  and  _24
REMARK   11  A    between atoms: _27  and  _29
REMARK   12  A    between atoms: _29  and  _30
REMARK   13  A    between atoms: _29  and  _32
REMARK   14  A    between atoms: _32  and  _33
REMARK   15  A    between atoms: _36  and  _38
REMARK   16  A    between atoms: _38  and  _39
REMARK   17  A    between atoms: _38  and  _41
REMARK   18  A    between atoms: _41  and  _42
REMARK   19  A    between atoms: _45  and  _47
REMARK   20  A    between atoms: _47  and  _48
REMARK   21  A    between atoms: _47  and  _50
REMARK   22  A    between atoms: _50  and  _51
REMARK   23  A    between atoms: _54  and  _56
REMARK   24  A    between atoms: _56  and  _57
REMARK   25  A    between atoms: _56  and  _59
REMARK   26  A    between atoms: _59  and  _60
REMARK   27  A    between atoms: _63  and  _65
REMARK   28  A    between atoms: _65  and  _66
REMARK   29  A    between atoms: _68  and  _70
REMARK   30  A    between atoms: _70  and  _71
REMARK   31  A    between atoms: _74  and  _76
REMARK   32  A    between atoms: _76  and  _77
REMARK   33  A    between atoms: _76  and  _79
REMARK   34  A    between atoms: _79  and  _80
REMARK   35  A    between atoms: _83  and  _85
REMARK   36  A    between atoms: _85  and  _86
REMARK   37  A    between atoms: _85  and  _88
REMARK   38  A    between atoms: _88  and  _89
REMARK   39  A    between atoms: _92  and  _94
REMARK   40  A    between atoms: _94  and  _95
REMARK   41  A    between atoms: _94  and  _97
REMARK   42  A    between atoms: _97  and  _98
REMARK   43  A    between atoms: _101  and  _103
REMARK   44  A    between atoms: _103  and  _104
REMARK   45  A    between atoms: _103  and  _106
REMARK   46  A    between atoms: _106  and  _107
REMARK   47  A    between atoms: _110  and  _112
REMARK   48  A    between atoms: _112  and  _113
REMARK   49  A    between atoms: _112  and  _115
REMARK   50  A    between atoms: _115  and  _116
REMARK   51  A    between atoms: _119  and  _121
REMARK   52  A    between atoms: _121  and  _122
REMARK   53  A    between atoms: _121  and  _124
REMARK   54  A    between atoms: _124  and  _125
REMARK   55  A    between atoms: _125  and  _126
REMARK   56  A    between atoms: _128  and  _130
REMARK   57  A    between atoms: _130  and  _131
REMARK   58  A    between atoms: _130  and  _133
REMARK   59  A    between atoms: _133  and  _134
REMARK   60  A    between atoms: _137  and  _139
REMARK   61  A    between atoms: _139  and  _140
REMARK   62  A    between atoms: _142  and  _144
REMARK   63  A    between atoms: _144  and  _145
REMARK   64  A    between atoms: _147  and  _149
REMARK   65  A    between atoms: _149  and  _150
REMARK   66  A    between atoms: _149  and  _152
REMARK   67  A    between atoms: _152  and  _153
REMARK   68  A    between atoms: _156  and  _158
REMARK   69  A    between atoms: _158  and  _159
REMARK   70  A    between atoms: _161  and  _163
REMARK   71  A    between atoms: _163  and  _164
REMARK   72  A    between atoms: _166  and  _168
REMARK   73  A    between atoms: _168  and  _169
REMARK   74  A    between atoms: _168  and  _171
REMARK   75  A    between atoms: _171  and  _172
REMARK   76  A    between atoms: _178  and  _180
REMARK   77  A    between atoms: _180  and  _181
REMARK   78  A    between atoms: _180  and  _183
REMARK   79  A    between atoms: _183  and  _184
REMARK   80  A    between atoms: _187  and  _189
REMARK   81  A    between atoms: _189  and  _190
REMARK   82  A    between atoms: _189  and  _192
REMARK   83  A    between atoms: _195  and  _197
REMARK   84  A    between atoms: _197  and  _198
REMARK   85  A    between atoms: _197  and  _200
REMARK   86  A    between atoms: _200  and  _201
REMARK   87  A    between atoms: _204  and  _206
REMARK   88  A    between atoms: _206  and  _207
REMARK   89  A    between atoms: _206  and  _209
REMARK   90  A    between atoms: _209  and  _210
REMARK   91  A    between atoms: _214  and  _215
REMARK   92  A    between atoms: _220  and  _222
REMARK   93  A    between atoms: _222  and  _223
REMARK   94  A    between atoms: _222  and  _225
REMARK   95  A    between atoms: _225  and  _226
REMARK   96  A    between atoms: _229  and  _231
REMARK   97  A    between atoms: _231  and  _232
REMARK   98  A    between atoms: _231  and  _234
REMARK   99  A    between atoms: _234  and  _235
REMARK  100  A    between atoms: _240  and  _242
REMARK  101  A    between atoms: _242  and  _243
REMARK  102  A    between atoms: _242  and  _245
REMARK  103  A    between atoms: _248  and  _250
REMARK  104  A    between atoms: _250  and  _251
REMARK  105  A    between atoms: _250  and  _253
REMARK  106  A    between atoms: _253  and  _254
REMARK  107  A    between atoms: _257  and  _259
REMARK  108  A    between atoms: _259  and  _260
REMARK  109  A    between atoms: _262  and  _264
REMARK  110  A    between atoms: _264  and  _265
REMARK  111  A    between atoms: _264  and  _267
REMARK  112  A    between atoms: _267  and  _268
REMARK  113  A    between atoms: _268  and  _269
REMARK  114  A    between atoms: _269  and  _270
REMARK  115  A    between atoms: _279  and  _281
REMARK  116  A    between atoms: _281  and  _282
REMARK  117  A    between atoms: _281  and  _284
REMARK  118  A    between atoms: _284  and  _285
REMARK  119  A    between atoms: _290  and  _292
REMARK  120  A    between atoms: _292  and  _293
REMARK  121  A    between atoms: _292  and  _295
REMARK  122  A    between atoms: _295  and  _296
REMARK  123  A    between atoms: _296  and  _297
REMARK  124  A    between atoms: _297  and  _298
REMARK  125  A    between atoms: _308  and  _309
REMARK  126  A    between atoms: _314  and  _316
REMARK  127  A    between atoms: _316  and  _317
REMARK  128  A    between atoms: _316  and  _319
REMARK  129  A    between atoms: _319  and  _320
REMARK  130  A    between atoms: _323  and  _325
REMARK  131  A    between atoms: _325  and  _326
REMARK  132  A    between atoms: _325  and  _328
REMARK  133  A    between atoms: _328  and  _329
REMARK  134  A    between atoms: _332  and  _334
REMARK  135  A    between atoms: _334  and  _335
REMARK  136  A    between atoms: _334  and  _337
REMARK  137  A    between atoms: _337  and  _338
REMARK  138  A    between atoms: _341  and  _343
REMARK  139  A    between atoms: _343  and  _344
REMARK  140  A    between atoms: _343  and  _346
REMARK  141  A    between atoms: _346  and  _347
REMARK  142  A    between atoms: _350  and  _352
REMARK  143  A    between atoms: _352  and  _353
REMARK  144  A    between atoms: _352  and  _355
REMARK  145  A    between atoms: _355  and  _356
REMARK  146  A    between atoms: _359  and  _361
REMARK  147  A    between atoms: _361  and  _362
REMARK  148  A    between atoms: _364  and  _366
REMARK  149  A    between atoms: _366  and  _367
REMARK  150  A    between atoms: _370  and  _372
REMARK  151  A    between atoms: _372  and  _373
REMARK  152  A    between atoms: _372  and  _375
REMARK  153  A    between atoms: _375  and  _376
REMARK  154  A    between atoms: _379  and  _381
REMARK  155  A    between atoms: _381  and  _382
REMARK  156  A    between atoms: _381  and  _384
REMARK  157  A    between atoms: _384  and  _385
REMARK  158  A    between atoms: _388  and  _390
REMARK  159  A    between atoms: _390  and  _391
REMARK  160  A    between atoms: _390  and  _393
REMARK  161  A    between atoms: _393  and  _394
REMARK  162  A    between atoms: _397  and  _399
REMARK  163  A    between atoms: _399  and  _400
REMARK  164  A    between atoms: _399  and  _402
REMARK  165  A    between atoms: _402  and  _403
REMARK  166  A    between atoms: _406  and  _408
REMARK  167  A    between atoms: _408  and  _409
REMARK  168  A    between atoms: _408  and  _411
REMARK  169  A    between atoms: _411  and  _412
REMARK  170  A    between atoms: _415  and  _417
REMARK  171  A    between atoms: _417  and  _418
REMARK  172  A    between atoms: _420  and  _422
REMARK  173  A    between atoms: _422  and  _423
REMARK  174  A    between atoms: _425  and  _427
REMARK  175  A    between atoms: _427  and  _428
REMARK  176  A    between atoms: _427  and  _430
REMARK  177  A    between atoms: _430  and  _431
REMARK  178  A    between atoms: _434  and  _436
REMARK  179  A    between atoms: _436  and  _437
REMARK  180  A    between atoms: _439  and  _441
REMARK  181  A    between atoms: _441  and  _442
REMARK  182  A    between atoms: _444  and  _446
REMARK  183  A    between atoms: _446  and  _447
REMARK  184  A    between atoms: _446  and  _449
REMARK  185  A    between atoms: _449  and  _450
REMARK  186  A    between atoms: _456  and  _458
REMARK  187  A    between atoms: _458  and  _459
REMARK  188  A    between atoms: _458  and  _461
REMARK  189  A    between atoms: _461  and  _462
REMARK  190  A    between atoms: _465  and  _467
REMARK  191  A    between atoms: _467  and  _468
REMARK  192  A    between atoms: _467  and  _470
REMARK  193  A    between atoms: _470  and  _471
REMARK  194  A    between atoms: _474  and  _476
REMARK  195  A    between atoms: _476  and  _477
REMARK  196  A    between atoms: _476  and  _479
REMARK  197  A    between atoms: _479  and  _480
REMARK  198  A    between atoms: _484  and  _485
REMARK  199  A    between atoms: _490  and  _492
REMARK  200  A    between atoms: _492  and  _493
REMARK  201  A    between atoms: _492  and  _495
REMARK  202  A    between atoms: _495  and  _496
REMARK  203  A    between atoms: _499  and  _501
REMARK  204  A    between atoms: _501  and  _502
REMARK  205  A    between atoms: _501  and  _504
REMARK  206  A    between atoms: _504  and  _505
REMARK  207  A    between atoms: _510  and  _512
REMARK  208  A    between atoms: _512  and  _513
REMARK  209  A    between atoms: _512  and  _515
REMARK  210  A    between atoms: _518  and  _520
REMARK  211  A    between atoms: _520  and  _521
REMARK  212  A    between atoms: _520  and  _523
REMARK  213  A    between atoms: _523  and  _524
REMARK  214  A    between atoms: _527  and  _529
REMARK  215  A    between atoms: _529  and  _530
REMARK  216  A    between atoms: _532  and  _534
REMARK  217  A    between atoms: _534  and  _535
REMARK  218  A    between atoms: _534  and  _537
REMARK  219  A    between atoms: _537  and  _538
REMARK  220  A    between atoms: _538  and  _539
REMARK  221  A    between atoms: _539  and  _540
REMARK                            x       y       z     vdW  Elec       q    Type
REMARK                         _______ _______ _______ _____ _____    ______ ____
ROOT
ATOM      1  O   HOH     1       9.974  25.133   9.533  0.00  0.00    +0.000 OA
ENDROOT
TORSDOF 0
REMARK  Name = ../refined-set-2016/2o4n/2o4n_pocket.pdb
REMARK  221 active torsions:
REMARK  status: ('A' for Active; 'I' for Inactive)
REMARK    1  A    between atoms: _1  and  _3
REMARK    2  A    between atoms: _3  and  _4
REMARK    3  A    between atoms: _3  and  _6
REMARK    4  A    between atoms: _6  and  _7
REMARK    5  A    between atoms: _7  and  _8
REMARK    6  A    between atoms: _8  and  _9
REMARK    7  A    between atoms: _18  and  _20
REMARK    8  A    between atoms: _20  and  _21
REMARK    9  A    between atoms: _20  and  _23
REMARK   10  A    between atoms: _23  and  _24
REMARK   11  A    between atoms: _27  and  _29
REMARK   12  A    between atoms: _29  and  _30
REMARK   13  A    between atoms: _29  and  _32
REMARK   14  A    between atoms: _32  and  _33
REMARK   15  A    between atoms: _36  and  _38
REMARK   16  A    between atoms: _38  and  _39
REMARK   17  A    between atoms: _38  and  _41
REMARK   18  A    between atoms: _41  and  _42
REMARK   19  A    between atoms: _45  and  _47
REMARK   20  A    between atoms: _47  and  _48
REMARK   21  A    between atoms: _47  and  _50
REMARK   22  A    between atoms: _50  and  _51
REMARK   23  A    between atoms: _54  and  _56
REMARK   24  A    between atoms: _56  and  _57
REMARK   25  A    between atoms: _56  and  _59
REMARK   26  A    between atoms: _59  and  _60
REMARK   27  A    between atoms: _63  and  _65
REMARK   28  A    between atoms: _65  and  _66
REMARK   29  A    between atoms: _68  and  _70
REMARK   30  A    between atoms: _70  and  _71
REMARK   31  A    between atoms: _74  and  _76
REMARK   32  A    between atoms: _76  and  _77
REMARK   33  A    between atoms: _76  and  _79
REMARK   34  A    between atoms: _79  and  _80
REMARK   35  A    between atoms: _83  and  _85
REMARK   36  A    between atoms: _85  and  _86
REMARK   37  A    between atoms: _85  and  _88
REMARK   38  A    between atoms: _88  and  _89
REMARK   39  A    between atoms: _92  and  _94
REMARK   40  A    between atoms: _94  and  _95
REMARK   41  A    between atoms: _94  and  _97
REMARK   42  A    between atoms: _97  and  _98
REMARK   43  A    between atoms: _101  and  _103
REMARK   44  A    between atoms: _103  and  _104
REMARK   45  A    between atoms: _103  and  _106
REMARK   46  A    between atoms: _106  and  _107
REMARK   47  A    between atoms: _110  and  _112
REMARK   48  A    between atoms: _112  and  _113
REMARK   49  A    between atoms: _112  and  _115
REMARK   50  A    between atoms: _115  and  _116
REMARK   51  A    between atoms: _119  and  _121
REMARK   52  A    between atoms: _121  and  _122
REMARK   53  A    between atoms: _121  and  _124
REMARK   54  A    between atoms: _124  and  _125
REMARK   55  A    between atoms: _125  and  _126
REMARK   56  A    between atoms: _128  and  _130
REMARK   57  A    between atoms: _130  and  _131
REMARK   58  A    between atoms: _130  and  _133
REMARK   59  A    between atoms: _133  and  _134
REMARK   60  A    between atoms: _137  and  _139
REMARK   61  A    between atoms: _139  and  _140
REMARK   62  A    between atoms: _142  and  _144
REMARK   63  A    between atoms: _144  and  _145
REMARK   64  A    between atoms: _147  and  _149
REMARK   65  A    between atoms: _149  and  _150
REMARK   66  A    between atoms: _149  and  _152
REMARK   67  A    between atoms: _152  and  _153
REMARK   68  A    between atoms: _156  and  _158
REMARK   69  A    between atoms: _158  and  _159
REMARK   70  A    between atoms: _161  and  _163
REMARK   71  A    between atoms: _163  and  _164
REMARK   72  A    between atoms: _166  and  _168
REMARK   73  A    between atoms: _168  and  _169
REMARK   74  A    between atoms: _168  and  _171
REMARK   75  A    between atoms: _171  and  _172
REMARK   76  A    between atoms: _178  and  _180
REMARK   77  A    between atoms: _180  and  _181
REMARK   78  A    between atoms: _180  and  _183
REMARK   79  A    between atoms: _183  and  _184
REMARK   80  A    between atoms: _187  and  _189
REMARK   81  A    between atoms: _189  and  _190
REMARK   82  A    between atoms: _189  and  _192
REMARK   83  A    between atoms: _195  and  _197
REMARK   84  A    between atoms: _197  and  _198
REMARK   85  A    between atoms: _197  and  _200
REMARK   86  A    between atoms: _200  and  _201
REMARK   87  A    between atoms: _204  and  _206
REMARK   88  A    between atoms: _206  and  _207
REMARK   89  A    between atoms: _206  and  _209
REMARK   90  A    between atoms: _209  and  _210
REMARK   91  A    between atoms: _214  and  _215
REMARK   92  A    between atoms: _220  and  _222
REMARK   93  A    between atoms: _222  and  _223
REMARK   94  A    between atoms: _222  and  _225
REMARK   95  A    between atoms: _225  and  _226
REMARK   96  A    between atoms: _229  and  _231
REMARK   97  A    between atoms: _231  and  _232
REMARK   98  A    between atoms: _231  and  _234
REMARK   99  A    between atoms: _234  and  _235
REMARK  100  A    between atoms: _240  and  _242
REMARK  101  A    between atoms: _242  and  _243
REMARK  102  A    between atoms: _242  and  _245
REMARK  103  A    between atoms: _248  and  _250
REMARK  104  A    between atoms: _250  and  _251
REMARK  105  A    between atoms: _250  and  _253
REMARK  106  A    between atoms: _253  and  _254
REMARK  107  A    between atoms: _257  and  _259
REMARK  108  A    between atoms: _259  and  _260
REMARK  109  A    between atoms: _262  and  _264
REMARK  110  A    between atoms: _264  and  _265
REMARK  111  A    between atoms: _264  and  _267
REMARK  112  A    between atoms: _267  and  _268
REMARK  113  A    between atoms: _268  and  _269
REMARK  114  A    between atoms: _269  and  _270
REMARK  115  A    between atoms: _279  and  _281
REMARK  116  A    between atoms: _281  and  _282
REMARK  117  A    between atoms: _281  and  _284
REMARK  118  A    between atoms: _284  and  _285
REMARK  119  A    between atoms: _290  and  _292
REMARK  120  A    between atoms: _292  and  _293
REMARK  121  A    between atoms: _292  and  _295
REMARK  122  A    between atoms: _295  and  _296
REMARK  123  A    between atoms: _296  and  _297
REMARK  124  A    between atoms: _297  and  _298
REMARK  125  A    between atoms: _308  and  _309
REMARK  126  A    between atoms: _314  and  _316
REMARK  127  A    between atoms: _316  and  _317
REMARK  128  A    between atoms: _316  and  _319
REMARK  129  A    between atoms: _319  and  _320
REMARK  130  A    between atoms: _323  and  _325
REMARK  131  A    between atoms: _325  and  _326
REMARK  132  A    between atoms: _325  and  _328
REMARK  133  A    between atoms: _328  and  _329
REMARK  134  A    between atoms: _332  and  _334
REMARK  135  A    between atoms: _334  and  _335
REMARK  136  A    between atoms: _334  and  _337
REMARK  137  A    between atoms: _337  and  _338
REMARK  138  A    between atoms: _341  and  _343
REMARK  139  A    between atoms: _343  and  _344
REMARK  140  A    between atoms: _343  and  _346
REMARK  141  A    between atoms: _346  and  _347
REMARK  142  A    between atoms: _350  and  _352
REMARK  143  A    between atoms: _352  and  _353
REMARK  144  A    between atoms: _352  and  _355
REMARK  145  A    between atoms: _355  and  _356
REMARK  146  A    between atoms: _359  and  _361
REMARK  147  A    between atoms: _361  and  _362
REMARK  148  A    between atoms: _364  and  _366
REMARK  149  A    between atoms: _366  and  _367
REMARK  150  A    between atoms: _370  and  _372
REMARK  151  A    between atoms: _372  and  _373
REMARK  152  A    between atoms: _372  and  _375
REMARK  153  A    between atoms: _375  and  _376
REMARK  154  A    between atoms: _379  and  _381
REMARK  155  A    between atoms: _381  and  _382
REMARK  156  A    between atoms: _381  and  _384
REMARK  157  A    between atoms: _384  and  _385
REMARK  158  A    between atoms: _388  and  _390
REMARK  159  A    between atoms: _390  and  _391
REMARK  160  A    between atoms: _390  and  _393
REMARK  161  A    between atoms: _393  and  _394
REMARK  162  A    between atoms: _397  and  _399
REMARK  163  A    between atoms: _399  and  _400
REMARK  164  A    between atoms: _399  and  _402
REMARK  165  A    between atoms: _402  and  _403
REMARK  166  A    between atoms: _406  and  _408
REMARK  167  A    between atoms: _408  and  _409
REMARK  168  A    between atoms: _408  and  _411
REMARK  169  A    between atoms: _411  and  _412
REMARK  170  A    between atoms: _415  and  _417
REMARK  171  A    between atoms: _417  and  _418
REMARK  172  A    between atoms: _420  and  _422
REMARK  173  A    between atoms: _422  and  _423
REMARK  174  A    between atoms: _425  and  _427
REMARK  175  A    between atoms: _427  and  _428
REMARK  176  A    between atoms: _427  and  _430
REMARK  177  A    between atoms: _430  and  _431
REMARK  178  A    between atoms: _434  and  _436
REMARK  179  A    between atoms: _436  and  _437
REMARK  180  A    between atoms: _439  and  _441
REMARK  181  A    between atoms: _441  and  _442
REMARK  182  A    between atoms: _444  and  _446
REMARK  183  A    between atoms: _446  and  _447
REMARK  184  A    between atoms: _446  and  _449
REMARK  185  A    between atoms: _449  and  _450
REMARK  186  A    between atoms: _456  and  _458
REMARK  187  A    between atoms: _458  and  _459
REMARK  188  A    between atoms: _458  and  _461
REMARK  189  A    between atoms: _461  and  _462
REMARK  190  A    between atoms: _465  and  _467
REMARK  191  A    between atoms: _467  and  _468
REMARK  192  A    between atoms: _467  and  _470
REMARK  193  A    between atoms: _470  and  _471
REMARK  194  A    between atoms: _474  and  _476
REMARK  195  A    between atoms: _476  and  _477
REMARK  196  A    between atoms: _476  and  _479
REMARK  197  A    between atoms: _479  and  _480
REMARK  198  A    between atoms: _484  and  _485
REMARK  199  A    between atoms: _490  and  _492
REMARK  200  A    between atoms: _492  and  _493
REMARK  201  A    between atoms: _492  and  _495
REMARK  202  A    between atoms: _495  and  _496
REMARK  203  A    between atoms: _499  and  _501
REMARK  204  A    between atoms: _501  and  _502
REMARK  205  A    between atoms: _501  and  _504
REMARK  206  A    between atoms: _504  and  _505
REMARK  207  A    between atoms: _510  and  _512
REMARK  208  A    between atoms: _512  and  _513
REMARK  209  A    between atoms: _512  and  _515
REMARK  210  A    between atoms: _518  and  _520
REMARK  211  A    between atoms: _520  and  _521
REMARK  212  A    between atoms: _520  and  _523
REMARK  213  A    between atoms: _523  and  _524
REMARK  214  A    between atoms: _527  and  _529
REMARK  215  A    between atoms: _529  and  _530
REMARK  216  A    between atoms: _532  and  _534
REMARK  217  A    between atoms: _534  and  _535
REMARK  218  A    between atoms: _534  and  _537
REMARK  219  A    between atoms: _537  and  _538
REMARK  220  A    between atoms: _538  and  _539
REMARK  221  A    between atoms: _539  and  _540
REMARK                            x       y       z     vdW  Elec       q    Type
REMARK                         _______ _______ _______ _____ _____    ______ ____
ROOT
ATOM      1  O   HOH     1      16.013  27.468  11.620  0.00  0.00    +0.000 OA
ENDROOT
TORSDOF 0
REMARK  Name = ../refined-set-2016/2o4n/2o4n_pocket.pdb
REMARK  221 active torsions:
REMARK  status: ('A' for Active; 'I' for Inactive)
REMARK    1  A    between atoms: _1  and  _3
REMARK    2  A    between atoms: _3  and  _4
REMARK    3  A    between atoms: _3  and  _6
REMARK    4  A    between atoms: _6  and  _7
REMARK    5  A    between atoms: _7  and  _8
REMARK    6  A    between atoms: _8  and  _9
REMARK    7  A    between atoms: _18  and  _20
REMARK    8  A    between atoms: _20  and  _21
REMARK    9  A    between atoms: _20  and  _23
REMARK   10  A    between atoms: _23  and  _24
REMARK   11  A    between atoms: _27  and  _29
REMARK   12  A    between atoms: _29  and  _30
REMARK   13  A    between atoms: _29  and  _32
REMARK   14  A    between atoms: _32  and  _33
REMARK   15  A    between atoms: _36  and  _38
REMARK   16  A    between atoms: _38  and  _39
REMARK   17  A    between atoms: _38  and  _41
REMARK   18  A    between atoms: _41  and  _42
REMARK   19  A    between atoms: _45  and  _47
REMARK   20  A    between atoms: _47  and  _48
REMARK   21  A    between atoms: _47  and  _50
REMARK   22  A    between atoms: _50  and  _51
REMARK   23  A    between atoms: _54  and  _56
REMARK   24  A    between atoms: _56  and  _57
REMARK   25  A    between atoms: _56  and  _59
REMARK   26  A    between atoms: _59  and  _60
REMARK   27  A    between atoms: _63  and  _65
REMARK   28  A    between atoms: _65  and  _66
REMARK   29  A    between atoms: _68  and  _70
REMARK   30  A    between atoms: _70  and  _71
REMARK   31  A    between atoms: _74  and  _76
REMARK   32  A    between atoms: _76  and  _77
REMARK   33  A    between atoms: _76  and  _79
REMARK   34  A    between atoms: _79  and  _80
REMARK   35  A    between atoms: _83  and  _85
REMARK   36  A    between atoms: _85  and  _86
REMARK   37  A    between atoms: _85  and  _88
REMARK   38  A    between atoms: _88  and  _89
REMARK   39  A    between atoms: _92  and  _94
REMARK   40  A    between atoms: _94  and  _95
REMARK   41  A    between atoms: _94  and  _97
REMARK   42  A    between atoms: _97  and  _98
REMARK   43  A    between atoms: _101  and  _103
REMARK   44  A    between atoms: _103  and  _104
REMARK   45  A    between atoms: _103  and  _106
REMARK   46  A    between atoms: _106  and  _107
REMARK   47  A    between atoms: _110  and  _112
REMARK   48  A    between atoms: _112  and  _113
REMARK   49  A    between atoms: _112  and  _115
REMARK   50  A    between atoms: _115  and  _116
REMARK   51  A    between atoms: _119  and  _121
REMARK   52  A    between atoms: _121  and  _122
REMARK   53  A    between atoms: _121  and  _124
REMARK   54  A    between atoms: _124  and  _125
REMARK   55  A    between atoms: _125  and  _126
REMARK   56  A    between atoms: _128  and  _130
REMARK   57  A    between atoms: _130  and  _131
REMARK   58  A    between atoms: _130  and  _133
REMARK   59  A    between atoms: _133  and  _134
REMARK   60  A    between atoms: _137  and  _139
REMARK   61  A    between atoms: _139  and  _140
REMARK   62  A    between atoms: _142  and  _144
REMARK   63  A    between atoms: _144  and  _145
REMARK   64  A    between atoms: _147  and  _149
REMARK   65  A    between atoms: _149  and  _150
REMARK   66  A    between atoms: _149  and  _152
REMARK   67  A    between atoms: _152  and  _153
REMARK   68  A    between atoms: _156  and  _158
REMARK   69  A    between atoms: _158  and  _159
REMARK   70  A    between atoms: _161  and  _163
REMARK   71  A    between atoms: _163  and  _164
REMARK   72  A    between atoms: _166  and  _168
REMARK   73  A    between atoms: _168  and  _169
REMARK   74  A    between atoms: _168  and  _171
REMARK   75  A    between atoms: _171  and  _172
REMARK   76  A    between atoms: _178  and  _180
REMARK   77  A    between atoms: _180  and  _181
REMARK   78  A    between atoms: _180  and  _183
REMARK   79  A    between atoms: _183  and  _184
REMARK   80  A    between atoms: _187  and  _189
REMARK   81  A    between atoms: _189  and  _190
REMARK   82  A    between atoms: _189  and  _192
REMARK   83  A    between atoms: _195  and  _197
REMARK   84  A    between atoms: _197  and  _198
REMARK   85  A    between atoms: _197  and  _200
REMARK   86  A    between atoms: _200  and  _201
REMARK   87  A    between atoms: _204  and  _206
REMARK   88  A    between atoms: _206  and  _207
REMARK   89  A    between atoms: _206  and  _209
REMARK   90  A    between atoms: _209  and  _210
REMARK   91  A    between atoms: _214  and  _215
REMARK   92  A    between atoms: _220  and  _222
REMARK   93  A    between atoms: _222  and  _223
REMARK   94  A    between atoms: _222  and  _225
REMARK   95  A    between atoms: _225  and  _226
REMARK   96  A    between atoms: _229  and  _231
REMARK   97  A    between atoms: _231  and  _232
REMARK   98  A    between atoms: _231  and  _234
REMARK   99  A    between atoms: _234  and  _235
REMARK  100  A    between atoms: _240  and  _242
REMARK  101  A    between atoms: _242  and  _243
REMARK  102  A    between atoms: _242  and  _245
REMARK  103  A    between atoms: _248  and  _250
REMARK  104  A    between atoms: _250  and  _251
REMARK  105  A    between atoms: _250  and  _253
REMARK  106  A    between atoms: _253  and  _254
REMARK  107  A    between atoms: _257  and  _259
REMARK  108  A    between atoms: _259  and  _260
REMARK  109  A    between atoms: _262  and  _264
REMARK  110  A    between atoms: _264  and  _265
REMARK  111  A    between atoms: _264  and  _267
REMARK  112  A    between atoms: _267  and  _268
REMARK  113  A    between atoms: _268  and  _269
REMARK  114  A    between atoms: _269  and  _270
REMARK  115  A    between atoms: _279  and  _281
REMARK  116  A    between atoms: _281  and  _282
REMARK  117  A    between atoms: _281  and  _284
REMARK  118  A    between atoms: _284  and  _285
REMARK  119  A    between atoms: _290  and  _292
REMARK  120  A    between atoms: _292  and  _293
REMARK  121  A    between atoms: _292  and  _295
REMARK  122  A    between atoms: _295  and  _296
REMARK  123  A    between atoms: _296  and  _297
REMARK  124  A    between atoms: _297  and  _298
REMARK  125  A    between atoms: _308  and  _309
REMARK  126  A    between atoms: _314  and  _316
REMARK  127  A    between atoms: _316  and  _317
REMARK  128  A    between atoms: _316  and  _319
REMARK  129  A    between atoms: _319  and  _320
REMARK  130  A    between atoms: _323  and  _325
REMARK  131  A    between atoms: _325  and  _326
REMARK  132  A    between atoms: _325  and  _328
REMARK  133  A    between atoms: _328  and  _329
REMARK  134  A    between atoms: _332  and  _334
REMARK  135  A    between atoms: _334  and  _335
REMARK  136  A    between atoms: _334  and  _337
REMARK  137  A    between atoms: _337  and  _338
REMARK  138  A    between atoms: _341  and  _343
REMARK  139  A    between atoms: _343  and  _344
REMARK  140  A    between atoms: _343  and  _346
REMARK  141  A    between atoms: _346  and  _347
REMARK  142  A    between atoms: _350  and  _352
REMARK  143  A    between atoms: _352  and  _353
REMARK  144  A    between atoms: _352  and  _355
REMARK  145  A    between atoms: _355  and  _356
REMARK  146  A    between atoms: _359  and  _361
REMARK  147  A    between atoms: _361  and  _362
REMARK  148  A    between atoms: _364  and  _366
REMARK  149  A    between atoms: _366  and  _367
REMARK  150  A    between atoms: _370  and  _372
REMARK  151  A    between atoms: _372  and  _373
REMARK  152  A    between atoms: _372  and  _375
REMARK  153  A    between atoms: _375  and  _376
REMARK  154  A    between atoms: _379  and  _381
REMARK  155  A    between atoms: _381  and  _382
REMARK  156  A    between atoms: _381  and  _384
REMARK  157  A    between atoms: _384  and  _385
REMARK  158  A    between atoms: _388  and  _390
REMARK  159  A    between atoms: _390  and  _391
REMARK  160  A    between atoms: _390  and  _393
REMARK  161  A    between atoms: _393  and  _394
REMARK  162  A    between atoms: _397  and  _399
REMARK  163  A    between atoms: _399  and  _400
REMARK  164  A    between atoms: _399  and  _402
REMARK  165  A    between atoms: _402  and  _403
REMARK  166  A    between atoms: _406  and  _408
REMARK  167  A    between atoms: _408  and  _409
REMARK  168  A    between atoms: _408  and  _411
REMARK  169  A    between atoms: _411  and  _412
REMARK  170  A    between atoms: _415  and  _417
REMARK  171  A    between atoms: _417  and  _418
REMARK  172  A    between atoms: _420  and  _422
REMARK  173  A    between atoms: _422  and  _423
REMARK  174  A    between atoms: _425  and  _427
REMARK  175  A    between atoms: _427  and  _428
REMARK  176  A    between atoms: _427  and  _430
REMARK  177  A    between atoms: _430  and  _431
REMARK  178  A    between atoms: _434  and  _436
REMARK  179  A    between atoms: _436  and  _437
REMARK  180  A    between atoms: _439  and  _441
REMARK  181  A    between atoms: _441  and  _442
REMARK  182  A    between atoms: _444  and  _446
REMARK  183  A    between atoms: _446  and  _447
REMARK  184  A    between atoms: _446  and  _449
REMARK  185  A    between atoms: _449  and  _450
REMARK  186  A    between atoms: _456  and  _458
REMARK  187  A    between atoms: _458  and  _459
REMARK  188  A    between atoms: _458  and  _461
REMARK  189  A    between atoms: _461  and  _462
REMARK  190  A    between atoms: _465  and  _467
REMARK  191  A    between atoms: _467  and  _468
REMARK  192  A    between atoms: _467  and  _470
REMARK  193  A    between atoms: _470  and  _471
REMARK  194  A    between atoms: _474  and  _476
REMARK  195  A    between atoms: _476  and  _477
REMARK  196  A    between atoms: _476  and  _479
REMARK  197  A    between atoms: _479  and  _480
REMARK  198  A    between atoms: _484  and  _485
REMARK  199  A    between atoms: _490  and  _492
REMARK  200  A    between atoms: _492  and  _493
REMARK  201  A    between atoms: _492  and  _495
REMARK  202  A    between atoms: _495  and  _496
REMARK  203  A    between atoms: _499  and  _501
REMARK  204  A    between atoms: _501  and  _502
REMARK  205  A    between atoms: _501  and  _504
REMARK  206  A    between atoms: _504  and  _505
REMARK  207  A    between atoms: _510  and  _512
REMARK  208  A    between atoms: _512  and  _513
REMARK  209  A    between atoms: _512  and  _515
REMARK  210  A    between atoms: _518  and  _520
REMARK  211  A    between atoms: _520  and  _521
REMARK  212  A    between atoms: _520  and  _523
REMARK  213  A    between atoms: _523  and  _524
REMARK  214  A    between atoms: _527  and  _529
REMARK  215  A    between atoms: _529  and  _530
REMARK  216  A    between atoms: _532  and  _534
REMARK  217  A    between atoms: _534  and  _535
REMARK  218  A    between atoms: _534  and  _537
REMARK  219  A    between atoms: _537  and  _538
REMARK  220  A    between atoms: _538  and  _539
REMARK  221  A    between atoms: _539  and  _540
REMARK                            x       y       z     vdW  Elec       q    Type
REMARK                         _______ _______ _______ _____ _____    ______ ____
ROOT
ATOM      1  O   HOH     1      20.284  29.412  17.607  0.00  0.00    +0.000 OA
ENDROOT
TORSDOF 0
REMARK  Name = ../refined-set-2016/2o4n/2o4n_pocket.pdb
REMARK  221 active torsions:
REMARK  status: ('A' for Active; 'I' for Inactive)
REMARK    1  A    between atoms: _1  and  _3
REMARK    2  A    between atoms: _3  and  _4
REMARK    3  A    between atoms: _3  and  _6
REMARK    4  A    between atoms: _6  and  _7
REMARK    5  A    between atoms: _7  and  _8
REMARK    6  A    between atoms: _8  and  _9
REMARK    7  A    between atoms: _18  and  _20
REMARK    8  A    between atoms: _20  and  _21
REMARK    9  A    between atoms: _20  and  _23
REMARK   10  A    between atoms: _23  and  _24
REMARK   11  A    between atoms: _27  and  _29
REMARK   12  A    between atoms: _29  and  _30
REMARK   13  A    between atoms: _29  and  _32
REMARK   14  A    between atoms: _32  and  _33
REMARK   15  A    between atoms: _36  and  _38
REMARK   16  A    between atoms: _38  and  _39
REMARK   17  A    between atoms: _38  and  _41
REMARK   18  A    between atoms: _41  and  _42
REMARK   19  A    between atoms: _45  and  _47
REMARK   20  A    between atoms: _47  and  _48
REMARK   21  A    between atoms: _47  and  _50
REMARK   22  A    between atoms: _50  and  _51
REMARK   23  A    between atoms: _54  and  _56
REMARK   24  A    between atoms: _56  and  _57
REMARK   25  A    between atoms: _56  and  _59
REMARK   26  A    between atoms: _59  and  _60
REMARK   27  A    between atoms: _63  and  _65
REMARK   28  A    between atoms: _65  and  _66
REMARK   29  A    between atoms: _68  and  _70
REMARK   30  A    between atoms: _70  and  _71
REMARK   31  A    between atoms: _74  and  _76
REMARK   32  A    between atoms: _76  and  _77
REMARK   33  A    between atoms: _76  and  _79
REMARK   34  A    between atoms: _79  and  _80
REMARK   35  A    between atoms: _83  and  _85
REMARK   36  A    between atoms: _85  and  _86
REMARK   37  A    between atoms: _85  and  _88
REMARK   38  A    between atoms: _88  and  _89
REMARK   39  A    between atoms: _92  and  _94
REMARK   40  A    between atoms: _94  and  _95
REMARK   41  A    between atoms: _94  and  _97
REMARK   42  A    between atoms: _97  and  _98
REMARK   43  A    between atoms: _101  and  _103
REMARK   44  A    between atoms: _103  and  _104
REMARK   45  A    between atoms: _103  and  _106
REMARK   46  A    between atoms: _106  and  _107
REMARK   47  A    between atoms: _110  and  _112
REMARK   48  A    between atoms: _112  and  _113
REMARK   49  A    between atoms: _112  and  _115
REMARK   50  A    between atoms: _115  and  _116
REMARK   51  A    between atoms: _119  and  _121
REMARK   52  A    between atoms: _121  and  _122
REMARK   53  A    between atoms: _121  and  _124
REMARK   54  A    between atoms: _124  and  _125
REMARK   55  A    between atoms: _125  and  _126
REMARK   56  A    between atoms: _128  and  _130
REMARK   57  A    between atoms: _130  and  _131
REMARK   58  A    between atoms: _130  and  _133
REMARK   59  A    between atoms: _133  and  _134
REMARK   60  A    between atoms: _137  and  _139
REMARK   61  A    between atoms: _139  and  _140
REMARK   62  A    between atoms: _142  and  _144
REMARK   63  A    between atoms: _144  and  _145
REMARK   64  A    between atoms: _147  and  _149
REMARK   65  A    between atoms: _149  and  _150
REMARK   66  A    between atoms: _149  and  _152
REMARK   67  A    between atoms: _152  and  _153
REMARK   68  A    between atoms: _156  and  _158
REMARK   69  A    between atoms: _158  and  _159
REMARK   70  A    between atoms: _161  and  _163
REMARK   71  A    between atoms: _163  and  _164
REMARK   72  A    between atoms: _166  and  _168
REMARK   73  A    between atoms: _168  and  _169
REMARK   74  A    between atoms: _168  and  _171
REMARK   75  A    between atoms: _171  and  _172
REMARK   76  A    between atoms: _178  and  _180
REMARK   77  A    between atoms: _180  and  _181
REMARK   78  A    between atoms: _180  and  _183
REMARK   79  A    between atoms: _183  and  _184
REMARK   80  A    between atoms: _187  and  _189
REMARK   81  A    between atoms: _189  and  _190
REMARK   82  A    between atoms: _189  and  _192
REMARK   83  A    between atoms: _195  and  _197
REMARK   84  A    between atoms: _197  and  _198
REMARK   85  A    between atoms: _197  and  _200
REMARK   86  A    between atoms: _200  and  _201
REMARK   87  A    between atoms: _204  and  _206
REMARK   88  A    between atoms: _206  and  _207
REMARK   89  A    between atoms: _206  and  _209
REMARK   90  A    between atoms: _209  and  _210
REMARK   91  A    between atoms: _214  and  _215
REMARK   92  A    between atoms: _220  and  _222
REMARK   93  A    between atoms: _222  and  _223
REMARK   94  A    between atoms: _222  and  _225
REMARK   95  A    between atoms: _225  and  _226
REMARK   96  A    between atoms: _229  and  _231
REMARK   97  A    between atoms: _231  and  _232
REMARK   98  A    between atoms: _231  and  _234
REMARK   99  A    between atoms: _234  and  _235
REMARK  100  A    between atoms: _240  and  _242
REMARK  101  A    between atoms: _242  and  _243
REMARK  102  A    between atoms: _242  and  _245
REMARK  103  A    between atoms: _248  and  _250
REMARK  104  A    between atoms: _250  and  _251
REMARK  105  A    between atoms: _250  and  _253
REMARK  106  A    between atoms: _253  and  _254
REMARK  107  A    between atoms: _257  and  _259
REMARK  108  A    between atoms: _259  and  _260
REMARK  109  A    between atoms: _262  and  _264
REMARK  110  A    between atoms: _264  and  _265
REMARK  111  A    between atoms: _264  and  _267
REMARK  112  A    between atoms: _267  and  _268
REMARK  113  A    between atoms: _268  and  _269
REMARK  114  A    between atoms: _269  and  _270
REMARK  115  A    between atoms: _279  and  _281
REMARK  116  A    between atoms: _281  and  _282
REMARK  117  A    between atoms: _281  and  _284
REMARK  118  A    between atoms: _284  and  _285
REMARK  119  A    between atoms: _290  and  _292
REMARK  120  A    between atoms: _292  and  _293
REMARK  121  A    between atoms: _292  and  _295
REMARK  122  A    between atoms: _295  and  _296
REMARK  123  A    between atoms: _296  and  _297
REMARK  124  A    between atoms: _297  and  _298
REMARK  125  A    between atoms: _308  and  _309
REMARK  126  A    between atoms: _314  and  _316
REMARK  127  A    between atoms: _316  and  _317
REMARK  128  A    between atoms: _316  and  _319
REMARK  129  A    between atoms: _319  and  _320
REMARK  130  A    between atoms: _323  and  _325
REMARK  131  A    between atoms: _325  and  _326
REMARK  132  A    between atoms: _325  and  _328
REMARK  133  A    between atoms: _328  and  _329
REMARK  134  A    between atoms: _332  and  _334
REMARK  135  A    between atoms: _334  and  _335
REMARK  136  A    between atoms: _334  and  _337
REMARK  137  A    between atoms: _337  and  _338
REMARK  138  A    between atoms: _341  and  _343
REMARK  139  A    between atoms: _343  and  _344
REMARK  140  A    between atoms: _343  and  _346
REMARK  141  A    between atoms: _346  and  _347
REMARK  142  A    between atoms: _350  and  _352
REMARK  143  A    between atoms: _352  and  _353
REMARK  144  A    between atoms: _352  and  _355
REMARK  145  A    between atoms: _355  and  _356
REMARK  146  A    between atoms: _359  and  _361
REMARK  147  A    between atoms: _361  and  _362
REMARK  148  A    between atoms: _364  and  _366
REMARK  149  A    between atoms: _366  and  _367
REMARK  150  A    between atoms: _370  and  _372
REMARK  151  A    between atoms: _372  and  _373
REMARK  152  A    between atoms: _372  and  _375
REMARK  153  A    between atoms: _375  and  _376
REMARK  154  A    between atoms: _379  and  _381
REMARK  155  A    between atoms: _381  and  _382
REMARK  156  A    between atoms: _381  and  _384
REMARK  157  A    between atoms: _384  and  _385
REMARK  158  A    between atoms: _388  and  _390
REMARK  159  A    between atoms: _390  and  _391
REMARK  160  A    between atoms: _390  and  _393
REMARK  161  A    between atoms: _393  and  _394
REMARK  162  A    between atoms: _397  and  _399
REMARK  163  A    between atoms: _399  and  _400
REMARK  164  A    between atoms: _399  and  _402
REMARK  165  A    between atoms: _402  and  _403
REMARK  166  A    between atoms: _406  and  _408
REMARK  167  A    between atoms: _408  and  _409
REMARK  168  A    between atoms: _408  and  _411
REMARK  169  A    between atoms: _411  and  _412
REMARK  170  A    between atoms: _415  and  _417
REMARK  171  A    between atoms: _417  and  _418
REMARK  172  A    between atoms: _420  and  _422
REMARK  173  A    between atoms: _422  and  _423
REMARK  174  A    between atoms: _425  and  _427
REMARK  175  A    between atoms: _427  and  _428
REMARK  176  A    between atoms: _427  and  _430
REMARK  177  A    between atoms: _430  and  _431
REMARK  178  A    between atoms: _434  and  _436
REMARK  179  A    between atoms: _436  and  _437
REMARK  180  A    between atoms: _439  and  _441
REMARK  181  A    between atoms: _441  and  _442
REMARK  182  A    between atoms: _444  and  _446
REMARK  183  A    between atoms: _446  and  _447
REMARK  184  A    between atoms: _446  and  _449
REMARK  185  A    between atoms: _449  and  _450
REMARK  186  A    between atoms: _456  and  _458
REMARK  187  A    between atoms: _458  and  _459
REMARK  188  A    between atoms: _458  and  _461
REMARK  189  A    between atoms: _461  and  _462
REMARK  190  A    between atoms: _465  and  _467
REMARK  191  A    between atoms: _467  and  _468
REMARK  192  A    between atoms: _467  and  _470
REMARK  193  A    between atoms: _470  and  _471
REMARK  194  A    between atoms: _474  and  _476
REMARK  195  A    between atoms: _476  and  _477
REMARK  196  A    between atoms: _476  and  _479
REMARK  197  A    between atoms: _479  and  _480
REMARK  198  A    between atoms: _484  and  _485
REMARK  199  A    between atoms: _490  and  _492
REMARK  200  A    between atoms: _492  and  _493
REMARK  201  A    between atoms: _492  and  _495
REMARK  202  A    between atoms: _495  and  _496
REMARK  203  A    between atoms: _499  and  _501
REMARK  204  A    between atoms: _501  and  _502
REMARK  205  A    between atoms: _501  and  _504
REMARK  206  A    between atoms: _504  and  _505
REMARK  207  A    between atoms: _510  and  _512
REMARK  208  A    between atoms: _512  and  _513
REMARK  209  A    between atoms: _512  and  _515
REMARK  210  A    between atoms: _518  and  _520
REMARK  211  A    between atoms: _520  and  _521
REMARK  212  A    between atoms: _520  and  _523
REMARK  213  A    between atoms: _523  and  _524
REMARK  214  A    between atoms: _527  and  _529
REMARK  215  A    between atoms: _529  and  _530
REMARK  216  A    between atoms: _532  and  _534
REMARK  217  A    between atoms: _534  and  _535
REMARK  218  A    between atoms: _534  and  _537
REMARK  219  A    between atoms: _537  and  _538
REMARK  220  A    between atoms: _538  and  _539
REMARK  221  A    between atoms: _539  and  _540
REMARK                            x       y       z     vdW  Elec       q    Type
REMARK                         _______ _______ _______ _____ _____    ______ ____
ROOT
ATOM      1  O   HOH     1      21.392  28.090  19.118  0.00  0.00    +0.000 OA
ENDROOT
TORSDOF 0
REMARK  Name = ../refined-set-2016/2o4n/2o4n_pocket.pdb
REMARK  221 active torsions:
REMARK  status: ('A' for Active; 'I' for Inactive)
REMARK    1  A    between atoms: _1  and  _3
REMARK    2  A    between atoms: _3  and  _4
REMARK    3  A    between atoms: _3  and  _6
REMARK    4  A    between atoms: _6  and  _7
REMARK    5  A    between atoms: _7  and  _8
REMARK    6  A    between atoms: _8  and  _9
REMARK    7  A    between atoms: _18  and  _20
REMARK    8  A    between atoms: _20  and  _21
REMARK    9  A    between atoms: _20  and  _23
REMARK   10  A    between atoms: _23  and  _24
REMARK   11  A    between atoms: _27  and  _29
REMARK   12  A    between atoms: _29  and  _30
REMARK   13  A    between atoms: _29  and  _32
REMARK   14  A    between atoms: _32  and  _33
REMARK   15  A    between atoms: _36  and  _38
REMARK   16  A    between atoms: _38  and  _39
REMARK   17  A    between atoms: _38  and  _41
REMARK   18  A    between atoms: _41  and  _42
REMARK   19  A    between atoms: _45  and  _47
REMARK   20  A    between atoms: _47  and  _48
REMARK   21  A    between atoms: _47  and  _50
REMARK   22  A    between atoms: _50  and  _51
REMARK   23  A    between atoms: _54  and  _56
REMARK   24  A    between atoms: _56  and  _57
REMARK   25  A    between atoms: _56  and  _59
REMARK   26  A    between atoms: _59  and  _60
REMARK   27  A    between atoms: _63  and  _65
REMARK   28  A    between atoms: _65  and  _66
REMARK   29  A    between atoms: _68  and  _70
REMARK   30  A    between atoms: _70  and  _71
REMARK   31  A    between atoms: _74  and  _76
REMARK   32  A    between atoms: _76  and  _77
REMARK   33  A    between atoms: _76  and  _79
REMARK   34  A    between atoms: _79  and  _80
REMARK   35  A    between atoms: _83  and  _85
REMARK   36  A    between atoms: _85  and  _86
REMARK   37  A    between atoms: _85  and  _88
REMARK   38  A    between atoms: _88  and  _89
REMARK   39  A    between atoms: _92  and  _94
REMARK   40  A    between atoms: _94  and  _95
REMARK   41  A    between atoms: _94  and  _97
REMARK   42  A    between atoms: _97  and  _98
REMARK   43  A    between atoms: _101  and  _103
REMARK   44  A    between atoms: _103  and  _104
REMARK   45  A    between atoms: _103  and  _106
REMARK   46  A    between atoms: _106  and  _107
REMARK   47  A    between atoms: _110  and  _112
REMARK   48  A    between atoms: _112  and  _113
REMARK   49  A    between atoms: _112  and  _115
REMARK   50  A    between atoms: _115  and  _116
REMARK   51  A    between atoms: _119  and  _121
REMARK   52  A    between atoms: _121  and  _122
REMARK   53  A    between atoms: _121  and  _124
REMARK   54  A    between atoms: _124  and  _125
REMARK   55  A    between atoms: _125  and  _126
REMARK   56  A    between atoms: _128  and  _130
REMARK   57  A    between atoms: _130  and  _131
REMARK   58  A    between atoms: _130  and  _133
REMARK   59  A    between atoms: _133  and  _134
REMARK   60  A    between atoms: _137  and  _139
REMARK   61  A    between atoms: _139  and  _140
REMARK   62  A    between atoms: _142  and  _144
REMARK   63  A    between atoms: _144  and  _145
REMARK   64  A    between atoms: _147  and  _149
REMARK   65  A    between atoms: _149  and  _150
REMARK   66  A    between atoms: _149  and  _152
REMARK   67  A    between atoms: _152  and  _153
REMARK   68  A    between atoms: _156  and  _158
REMARK   69  A    between atoms: _158  and  _159
REMARK   70  A    between atoms: _161  and  _163
REMARK   71  A    between atoms: _163  and  _164
REMARK   72  A    between atoms: _166  and  _168
REMARK   73  A    between atoms: _168  and  _169
REMARK   74  A    between atoms: _168  and  _171
REMARK   75  A    between atoms: _171  and  _172
REMARK   76  A    between atoms: _178  and  _180
REMARK   77  A    between atoms: _180  and  _181
REMARK   78  A    between atoms: _180  and  _183
REMARK   79  A    between atoms: _183  and  _184
REMARK   80  A    between atoms: _187  and  _189
REMARK   81  A    between atoms: _189  and  _190
REMARK   82  A    between atoms: _189  and  _192
REMARK   83  A    between atoms: _195  and  _197
REMARK   84  A    between atoms: _197  and  _198
REMARK   85  A    between atoms: _197  and  _200
REMARK   86  A    between atoms: _200  and  _201
REMARK   87  A    between atoms: _204  and  _206
REMARK   88  A    between atoms: _206  and  _207
REMARK   89  A    between atoms: _206  and  _209
REMARK   90  A    between atoms: _209  and  _210
REMARK   91  A    between atoms: _214  and  _215
REMARK   92  A    between atoms: _220  and  _222
REMARK   93  A    between atoms: _222  and  _223
REMARK   94  A    between atoms: _222  and  _225
REMARK   95  A    between atoms: _225  and  _226
REMARK   96  A    between atoms: _229  and  _231
REMARK   97  A    between atoms: _231  and  _232
REMARK   98  A    between atoms: _231  and  _234
REMARK   99  A    between atoms: _234  and  _235
REMARK  100  A    between atoms: _240  and  _242
REMARK  101  A    between atoms: _242  and  _243
REMARK  102  A    between atoms: _242  and  _245
REMARK  103  A    between atoms: _248  and  _250
REMARK  104  A    between atoms: _250  and  _251
REMARK  105  A    between atoms: _250  and  _253
REMARK  106  A    between atoms: _253  and  _254
REMARK  107  A    between atoms: _257  and  _259
REMARK  108  A    between atoms: _259  and  _260
REMARK  109  A    between atoms: _262  and  _264
REMARK  110  A    between atoms: _264  and  _265
REMARK  111  A    between atoms: _264  and  _267
REMARK  112  A    between atoms: _267  and  _268
REMARK  113  A    between atoms: _268  and  _269
REMARK  114  A    between atoms: _269  and  _270
REMARK  115  A    between atoms: _279  and  _281
REMARK  116  A    between atoms: _281  and  _282
REMARK  117  A    between atoms: _281  and  _284
REMARK  118  A    between atoms: _284  and  _285
REMARK  119  A    between atoms: _290  and  _292
REMARK  120  A    between atoms: _292  and  _293
REMARK  121  A    between atoms: _292  and  _295
REMARK  122  A    between atoms: _295  and  _296
REMARK  123  A    between atoms: _296  and  _297
REMARK  124  A    between atoms: _297  and  _298
REMARK  125  A    between atoms: _308  and  _309
REMARK  126  A    between atoms: _314  and  _316
REMARK  127  A    between atoms: _316  and  _317
REMARK  128  A    between atoms: _316  and  _319
REMARK  129  A    between atoms: _319  and  _320
REMARK  130  A    between atoms: _323  and  _325
REMARK  131  A    between atoms: _325  and  _326
REMARK  132  A    between atoms: _325  and  _328
REMARK  133  A    between atoms: _328  and  _329
REMARK  134  A    between atoms: _332  and  _334
REMARK  135  A    between atoms: _334  and  _335
REMARK  136  A    between atoms: _334  and  _337
REMARK  137  A    between atoms: _337  and  _338
REMARK  138  A    between atoms: _341  and  _343
REMARK  139  A    between atoms: _343  and  _344
REMARK  140  A    between atoms: _343  and  _346
REMARK  141  A    between atoms: _346  and  _347
REMARK  142  A    between atoms: _350  and  _352
REMARK  143  A    between atoms: _352  and  _353
REMARK  144  A    between atoms: _352  and  _355
REMARK  145  A    between atoms: _355  and  _356
REMARK  146  A    between atoms: _359  and  _361
REMARK  147  A    between atoms: _361  and  _362
REMARK  148  A    between atoms: _364  and  _366
REMARK  149  A    between atoms: _366  and  _367
REMARK  150  A    between atoms: _370  and  _372
REMARK  151  A    between atoms: _372  and  _373
REMARK  152  A    between atoms: _372  and  _375
REMARK  153  A    between atoms: _375  and  _376
REMARK  154  A    between atoms: _379  and  _381
REMARK  155  A    between atoms: _381  and  _382
REMARK  156  A    between atoms: _381  and  _384
REMARK  157  A    between atoms: _384  and  _385
REMARK  158  A    between atoms: _388  and  _390
REMARK  159  A    between atoms: _390  and  _391
REMARK  160  A    between atoms: _390  and  _393
REMARK  161  A    between atoms: _393  and  _394
REMARK  162  A    between atoms: _397  and  _399
REMARK  163  A    between atoms: _399  and  _400
REMARK  164  A    between atoms: _399  and  _402
REMARK  165  A    between atoms: _402  and  _403
REMARK  166  A    between atoms: _406  and  _408
REMARK  167  A    between atoms: _408  and  _409
REMARK  168  A    between atoms: _408  and  _411
REMARK  169  A    between atoms: _411  and  _412
REMARK  170  A    between atoms: _415  and  _417
REMARK  171  A    between atoms: _417  and  _418
REMARK  172  A    between atoms: _420  and  _422
REMARK  173  A    between atoms: _422  and  _423
REMARK  174  A    between atoms: _425  and  _427
REMARK  175  A    between atoms: _427  and  _428
REMARK  176  A    between atoms: _427  and  _430
REMARK  177  A    between atoms: _430  and  _431
REMARK  178  A    between atoms: _434  and  _436
REMARK  179  A    between atoms: _436  and  _437
REMARK  180  A    between atoms: _439  and  _441
REMARK  181  A    between atoms: _441  and  _442
REMARK  182  A    between atoms: _444  and  _446
REMARK  183  A    between atoms: _446  and  _447
REMARK  184  A    between atoms: _446  and  _449
REMARK  185  A    between atoms: _449  and  _450
REMARK  186  A    between atoms: _456  and  _458
REMARK  187  A    between atoms: _458  and  _459
REMARK  188  A    between atoms: _458  and  _461
REMARK  189  A    between atoms: _461  and  _462
REMARK  190  A    between atoms: _465  and  _467
REMARK  191  A    between atoms: _467  and  _468
REMARK  192  A    between atoms: _467  and  _470
REMARK  193  A    between atoms: _470  and  _471
REMARK  194  A    between atoms: _474  and  _476
REMARK  195  A    between atoms: _476  and  _477
REMARK  196  A    between atoms: _476  and  _479
REMARK  197  A    between atoms: _479  and  _480
REMARK  198  A    between atoms: _484  and  _485
REMARK  199  A    between atoms: _490  and  _492
REMARK  200  A    between atoms: _492  and  _493
REMARK  201  A    between atoms: _492  and  _495
REMARK  202  A    between atoms: _495  and  _496
REMARK  203  A    between atoms: _499  and  _501
REMARK  204  A    between atoms: _501  and  _502
REMARK  205  A    between atoms: _501  and  _504
REMARK  206  A    between atoms: _504  and  _505
REMARK  207  A    between atoms: _510  and  _512
REMARK  208  A    between atoms: _512  and  _513
REMARK  209  A    between atoms: _512  and  _515
REMARK  210  A    between atoms: _518  and  _520
REMARK  211  A    between atoms: _520  and  _521
REMARK  212  A    between atoms: _520  and  _523
REMARK  213  A    between atoms: _523  and  _524
REMARK  214  A    between atoms: _527  and  _529
REMARK  215  A    between atoms: _529  and  _530
REMARK  216  A    between atoms: _532  and  _534
REMARK  217  A    between atoms: _534  and  _535
REMARK  218  A    between atoms: _534  and  _537
REMARK  219  A    between atoms: _537  and  _538
REMARK  220  A    between atoms: _538  and  _539
REMARK  221  A    between atoms: _539  and  _540
REMARK                            x       y       z     vdW  Elec       q    Type
REMARK                         _______ _______ _______ _____ _____    ______ ____
ROOT
ATOM      1  O   HOH     1       2.604  16.065  21.118  0.00  0.00    +0.000 OA
ENDROOT
TORSDOF 0
REMARK  Name = ../refined-set-2016/2o4n/2o4n_pocket.pdb
REMARK  221 active torsions:
REMARK  status: ('A' for Active; 'I' for Inactive)
REMARK    1  A    between atoms: _1  and  _3
REMARK    2  A    between atoms: _3  and  _4
REMARK    3  A    between atoms: _3  and  _6
REMARK    4  A    between atoms: _6  and  _7
REMARK    5  A    between atoms: _7  and  _8
REMARK    6  A    between atoms: _8  and  _9
REMARK    7  A    between atoms: _18  and  _20
REMARK    8  A    between atoms: _20  and  _21
REMARK    9  A    between atoms: _20  and  _23
REMARK   10  A    between atoms: _23  and  _24
REMARK   11  A    between atoms: _27  and  _29
REMARK   12  A    between atoms: _29  and  _30
REMARK   13  A    between atoms: _29  and  _32
REMARK   14  A    between atoms: _32  and  _33
REMARK   15  A    between atoms: _36  and  _38
REMARK   16  A    between atoms: _38  and  _39
REMARK   17  A    between atoms: _38  and  _41
REMARK   18  A    between atoms: _41  and  _42
REMARK   19  A    between atoms: _45  and  _47
REMARK   20  A    between atoms: _47  and  _48
REMARK   21  A    between atoms: _47  and  _50
REMARK   22  A    between atoms: _50  and  _51
REMARK   23  A    between atoms: _54  and  _56
REMARK   24  A    between atoms: _56  and  _57
REMARK   25  A    between atoms: _56  and  _59
REMARK   26  A    between atoms: _59  and  _60
REMARK   27  A    between atoms: _63  and  _65
REMARK   28  A    between atoms: _65  and  _66
REMARK   29  A    between atoms: _68  and  _70
REMARK   30  A    between atoms: _70  and  _71
REMARK   31  A    between atoms: _74  and  _76
REMARK   32  A    between atoms: _76  and  _77
REMARK   33  A    between atoms: _76  and  _79
REMARK   34  A    between atoms: _79  and  _80
REMARK   35  A    between atoms: _83  and  _85
REMARK   36  A    between atoms: _85  and  _86
REMARK   37  A    between atoms: _85  and  _88
REMARK   38  A    between atoms: _88  and  _89
REMARK   39  A    between atoms: _92  and  _94
REMARK   40  A    between atoms: _94  and  _95
REMARK   41  A    between atoms: _94  and  _97
REMARK   42  A    between atoms: _97  and  _98
REMARK   43  A    between atoms: _101  and  _103
REMARK   44  A    between atoms: _103  and  _104
REMARK   45  A    between atoms: _103  and  _106
REMARK   46  A    between atoms: _106  and  _107
REMARK   47  A    between atoms: _110  and  _112
REMARK   48  A    between atoms: _112  and  _113
REMARK   49  A    between atoms: _112  and  _115
REMARK   50  A    between atoms: _115  and  _116
REMARK   51  A    between atoms: _119  and  _121
REMARK   52  A    between atoms: _121  and  _122
REMARK   53  A    between atoms: _121  and  _124
REMARK   54  A    between atoms: _124  and  _125
REMARK   55  A    between atoms: _125  and  _126
REMARK   56  A    between atoms: _128  and  _130
REMARK   57  A    between atoms: _130  and  _131
REMARK   58  A    between atoms: _130  and  _133
REMARK   59  A    between atoms: _133  and  _134
REMARK   60  A    between atoms: _137  and  _139
REMARK   61  A    between atoms: _139  and  _140
REMARK   62  A    between atoms: _142  and  _144
REMARK   63  A    between atoms: _144  and  _145
REMARK   64  A    between atoms: _147  and  _149
REMARK   65  A    between atoms: _149  and  _150
REMARK   66  A    between atoms: _149  and  _152
REMARK   67  A    between atoms: _152  and  _153
REMARK   68  A    between atoms: _156  and  _158
REMARK   69  A    between atoms: _158  and  _159
REMARK   70  A    between atoms: _161  and  _163
REMARK   71  A    between atoms: _163  and  _164
REMARK   72  A    between atoms: _166  and  _168
REMARK   73  A    between atoms: _168  and  _169
REMARK   74  A    between atoms: _168  and  _171
REMARK   75  A    between atoms: _171  and  _172
REMARK   76  A    between atoms: _178  and  _180
REMARK   77  A    between atoms: _180  and  _181
REMARK   78  A    between atoms: _180  and  _183
REMARK   79  A    between atoms: _183  and  _184
REMARK   80  A    between atoms: _187  and  _189
REMARK   81  A    between atoms: _189  and  _190
REMARK   82  A    between atoms: _189  and  _192
REMARK   83  A    between atoms: _195  and  _197
REMARK   84  A    between atoms: _197  and  _198
REMARK   85  A    between atoms: _197  and  _200
REMARK   86  A    between atoms: _200  and  _201
REMARK   87  A    between atoms: _204  and  _206
REMARK   88  A    between atoms: _206  and  _207
REMARK   89  A    between atoms: _206  and  _209
REMARK   90  A    between atoms: _209  and  _210
REMARK   91  A    between atoms: _214  and  _215
REMARK   92  A    between atoms: _220  and  _222
REMARK   93  A    between atoms: _222  and  _223
REMARK   94  A    between atoms: _222  and  _225
REMARK   95  A    between atoms: _225  and  _226
REMARK   96  A    between atoms: _229  and  _231
REMARK   97  A    between atoms: _231  and  _232
REMARK   98  A    between atoms: _231  and  _234
REMARK   99  A    between atoms: _234  and  _235
REMARK  100  A    between atoms: _240  and  _242
REMARK  101  A    between atoms: _242  and  _243
REMARK  102  A    between atoms: _242  and  _245
REMARK  103  A    between atoms: _248  and  _250
REMARK  104  A    between atoms: _250  and  _251
REMARK  105  A    between atoms: _250  and  _253
REMARK  106  A    between atoms: _253  and  _254
REMARK  107  A    between atoms: _257  and  _259
REMARK  108  A    between atoms: _259  and  _260
REMARK  109  A    between atoms: _262  and  _264
REMARK  110  A    between atoms: _264  and  _265
REMARK  111  A    between atoms: _264  and  _267
REMARK  112  A    between atoms: _267  and  _268
REMARK  113  A    between atoms: _268  and  _269
REMARK  114  A    between atoms: _269  and  _270
REMARK  115  A    between atoms: _279  and  _281
REMARK  116  A    between atoms: _281  and  _282
REMARK  117  A    between atoms: _281  and  _284
REMARK  118  A    between atoms: _284  and  _285
REMARK  119  A    between atoms: _290  and  _292
REMARK  120  A    between atoms: _292  and  _293
REMARK  121  A    between atoms: _292  and  _295
REMARK  122  A    between atoms: _295  and  _296
REMARK  123  A    between atoms: _296  and  _297
REMARK  124  A    between atoms: _297  and  _298
REMARK  125  A    between atoms: _308  and  _309
REMARK  126  A    between atoms: _314  and  _316
REMARK  127  A    between atoms: _316  and  _317
REMARK  128  A    between atoms: _316  and  _319
REMARK  129  A    between atoms: _319  and  _320
REMARK  130  A    between atoms: _323  and  _325
REMARK  131  A    between atoms: _325  and  _326
REMARK  132  A    between atoms: _325  and  _328
REMARK  133  A    between atoms: _328  and  _329
REMARK  134  A    between atoms: _332  and  _334
REMARK  135  A    between atoms: _334  and  _335
REMARK  136  A    between atoms: _334  and  _337
REMARK  137  A    between atoms: _337  and  _338
REMARK  138  A    between atoms: _341  and  _343
REMARK  139  A    between atoms: _343  and  _344
REMARK  140  A    between atoms: _343  and  _346
REMARK  141  A    between atoms: _346  and  _347
REMARK  142  A    between atoms: _350  and  _352
REMARK  143  A    between atoms: _352  and  _353
REMARK  144  A    between atoms: _352  and  _355
REMARK  145  A    between atoms: _355  and  _356
REMARK  146  A    between atoms: _359  and  _361
REMARK  147  A    between atoms: _361  and  _362
REMARK  148  A    between atoms: _364  and  _366
REMARK  149  A    between atoms: _366  and  _367
REMARK  150  A    between atoms: _370  and  _372
REMARK  151  A    between atoms: _372  and  _373
REMARK  152  A    between atoms: _372  and  _375
REMARK  153  A    between atoms: _375  and  _376
REMARK  154  A    between atoms: _379  and  _381
REMARK  155  A    between atoms: _381  and  _382
REMARK  156  A    between atoms: _381  and  _384
REMARK  157  A    between atoms: _384  and  _385
REMARK  158  A    between atoms: _388  and  _390
REMARK  159  A    between atoms: _390  and  _391
REMARK  160  A    between atoms: _390  and  _393
REMARK  161  A    between atoms: _393  and  _394
REMARK  162  A    between atoms: _397  and  _399
REMARK  163  A    between atoms: _399  and  _400
REMARK  164  A    between atoms: _399  and  _402
REMARK  165  A    between atoms: _402  and  _403
REMARK  166  A    between atoms: _406  and  _408
REMARK  167  A    between atoms: _408  and  _409
REMARK  168  A    between atoms: _408  and  _411
REMARK  169  A    between atoms: _411  and  _412
REMARK  170  A    between atoms: _415  and  _417
REMARK  171  A    between atoms: _417  and  _418
REMARK  172  A    between atoms: _420  and  _422
REMARK  173  A    between atoms: _422  and  _423
REMARK  174  A    between atoms: _425  and  _427
REMARK  175  A    between atoms: _427  and  _428
REMARK  176  A    between atoms: _427  and  _430
REMARK  177  A    between atoms: _430  and  _431
REMARK  178  A    between atoms: _434  and  _436
REMARK  179  A    between atoms: _436  and  _437
REMARK  180  A    between atoms: _439  and  _441
REMARK  181  A    between atoms: _441  and  _442
REMARK  182  A    between atoms: _444  and  _446
REMARK  183  A    between atoms: _446  and  _447
REMARK  184  A    between atoms: _446  and  _449
REMARK  185  A    between atoms: _449  and  _450
REMARK  186  A    between atoms: _456  and  _458
REMARK  187  A    between atoms: _458  and  _459
REMARK  188  A    between atoms: _458  and  _461
REMARK  189  A    between atoms: _461  and  _462
REMARK  190  A    between atoms: _465  and  _467
REMARK  191  A    between atoms: _467  and  _468
REMARK  192  A    between atoms: _467  and  _470
REMARK  193  A    between atoms: _470  and  _471
REMARK  194  A    between atoms: _474  and  _476
REMARK  195  A    between atoms: _476  and  _477
REMARK  196  A    between atoms: _476  and  _479
REMARK  197  A    between atoms: _479  and  _480
REMARK  198  A    between atoms: _484  and  _485
REMARK  199  A    between atoms: _490  and  _492
REMARK  200  A    between atoms: _492  and  _493
REMARK  201  A    between atoms: _492  and  _495
REMARK  202  A    between atoms: _495  and  _496
REMARK  203  A    between atoms: _499  and  _501
REMARK  204  A    between atoms: _501  and  _502
REMARK  205  A    between atoms: _501  and  _504
REMARK  206  A    between atoms: _504  and  _505
REMARK  207  A    between atoms: _510  and  _512
REMARK  208  A    between atoms: _512  and  _513
REMARK  209  A    between atoms: _512  and  _515
REMARK  210  A    between atoms: _518  and  _520
REMARK  211  A    between atoms: _520  and  _521
REMARK  212  A    between atoms: _520  and  _523
REMARK  213  A    between atoms: _523  and  _524
REMARK  214  A    between atoms: _527  and  _529
REMARK  215  A    between atoms: _529  and  _530
REMARK  216  A    between atoms: _532  and  _534
REMARK  217  A    between atoms: _534  and  _535
REMARK  218  A    between atoms: _534  and  _537
REMARK  219  A    between atoms: _537  and  _538
REMARK  220  A    between atoms: _538  and  _539
REMARK  221  A    between atoms: _539  and  _540
REMARK                            x       y       z     vdW  Elec       q    Type
REMARK                         _______ _______ _______ _____ _____    ______ ____
ROOT
ATOM      1  O   HOH     1      16.228  28.081   9.062  0.00  0.00    +0.000 OA
ENDROOT
TORSDOF 0
REMARK  Name = ../refined-set-2016/2o4n/2o4n_pocket.pdb
REMARK  221 active torsions:
REMARK  status: ('A' for Active; 'I' for Inactive)
REMARK    1  A    between atoms: _1  and  _3
REMARK    2  A    between atoms: _3  and  _4
REMARK    3  A    between atoms: _3  and  _6
REMARK    4  A    between atoms: _6  and  _7
REMARK    5  A    between atoms: _7  and  _8
REMARK    6  A    between atoms: _8  and  _9
REMARK    7  A    between atoms: _18  and  _20
REMARK    8  A    between atoms: _20  and  _21
REMARK    9  A    between atoms: _20  and  _23
REMARK   10  A    between atoms: _23  and  _24
REMARK   11  A    between atoms: _27  and  _29
REMARK   12  A    between atoms: _29  and  _30
REMARK   13  A    between atoms: _29  and  _32
REMARK   14  A    between atoms: _32  and  _33
REMARK   15  A    between atoms: _36  and  _38
REMARK   16  A    between atoms: _38  and  _39
REMARK   17  A    between atoms: _38  and  _41
REMARK   18  A    between atoms: _41  and  _42
REMARK   19  A    between atoms: _45  and  _47
REMARK   20  A    between atoms: _47  and  _48
REMARK   21  A    between atoms: _47  and  _50
REMARK   22  A    between atoms: _50  and  _51
REMARK   23  A    between atoms: _54  and  _56
REMARK   24  A    between atoms: _56  and  _57
REMARK   25  A    between atoms: _56  and  _59
REMARK   26  A    between atoms: _59  and  _60
REMARK   27  A    between atoms: _63  and  _65
REMARK   28  A    between atoms: _65  and  _66
REMARK   29  A    between atoms: _68  and  _70
REMARK   30  A    between atoms: _70  and  _71
REMARK   31  A    between atoms: _74  and  _76
REMARK   32  A    between atoms: _76  and  _77
REMARK   33  A    between atoms: _76  and  _79
REMARK   34  A    between atoms: _79  and  _80
REMARK   35  A    between atoms: _83  and  _85
REMARK   36  A    between atoms: _85  and  _86
REMARK   37  A    between atoms: _85  and  _88
REMARK   38  A    between atoms: _88  and  _89
REMARK   39  A    between atoms: _92  and  _94
REMARK   40  A    between atoms: _94  and  _95
REMARK   41  A    between atoms: _94  and  _97
REMARK   42  A    between atoms: _97  and  _98
REMARK   43  A    between atoms: _101  and  _103
REMARK   44  A    between atoms: _103  and  _104
REMARK   45  A    between atoms: _103  and  _106
REMARK   46  A    between atoms: _106  and  _107
REMARK   47  A    between atoms: _110  and  _112
REMARK   48  A    between atoms: _112  and  _113
REMARK   49  A    between atoms: _112  and  _115
REMARK   50  A    between atoms: _115  and  _116
REMARK   51  A    between atoms: _119  and  _121
REMARK   52  A    between atoms: _121  and  _122
REMARK   53  A    between atoms: _121  and  _124
REMARK   54  A    between atoms: _124  and  _125
REMARK   55  A    between atoms: _125  and  _126
REMARK   56  A    between atoms: _128  and  _130
REMARK   57  A    between atoms: _130  and  _131
REMARK   58  A    between atoms: _130  and  _133
REMARK   59  A    between atoms: _133  and  _134
REMARK   60  A    between atoms: _137  and  _139
REMARK   61  A    between atoms: _139  and  _140
REMARK   62  A    between atoms: _142  and  _144
REMARK   63  A    between atoms: _144  and  _145
REMARK   64  A    between atoms: _147  and  _149
REMARK   65  A    between atoms: _149  and  _150
REMARK   66  A    between atoms: _149  and  _152
REMARK   67  A    between atoms: _152  and  _153
REMARK   68  A    between atoms: _156  and  _158
REMARK   69  A    between atoms: _158  and  _159
REMARK   70  A    between atoms: _161  and  _163
REMARK   71  A    between atoms: _163  and  _164
REMARK   72  A    between atoms: _166  and  _168
REMARK   73  A    between atoms: _168  and  _169
REMARK   74  A    between atoms: _168  and  _171
REMARK   75  A    between atoms: _171  and  _172
REMARK   76  A    between atoms: _178  and  _180
REMARK   77  A    between atoms: _180  and  _181
REMARK   78  A    between atoms: _180  and  _183
REMARK   79  A    between atoms: _183  and  _184
REMARK   80  A    between atoms: _187  and  _189
REMARK   81  A    between atoms: _189  and  _190
REMARK   82  A    between atoms: _189  and  _192
REMARK   83  A    between atoms: _195  and  _197
REMARK   84  A    between atoms: _197  and  _198
REMARK   85  A    between atoms: _197  and  _200
REMARK   86  A    between atoms: _200  and  _201
REMARK   87  A    between atoms: _204  and  _206
REMARK   88  A    between atoms: _206  and  _207
REMARK   89  A    between atoms: _206  and  _209
REMARK   90  A    between atoms: _209  and  _210
REMARK   91  A    between atoms: _214  and  _215
REMARK   92  A    between atoms: _220  and  _222
REMARK   93  A    between atoms: _222  and  _223
REMARK   94  A    between atoms: _222  and  _225
REMARK   95  A    between atoms: _225  and  _226
REMARK   96  A    between atoms: _229  and  _231
REMARK   97  A    between atoms: _231  and  _232
REMARK   98  A    between atoms: _231  and  _234
REMARK   99  A    between atoms: _234  and  _235
REMARK  100  A    between atoms: _240  and  _242
REMARK  101  A    between atoms: _242  and  _243
REMARK  102  A    between atoms: _242  and  _245
REMARK  103  A    between atoms: _248  and  _250
REMARK  104  A    between atoms: _250  and  _251
REMARK  105  A    between atoms: _250  and  _253
REMARK  106  A    between atoms: _253  and  _254
REMARK  107  A    between atoms: _257  and  _259
REMARK  108  A    between atoms: _259  and  _260
REMARK  109  A    between atoms: _262  and  _264
REMARK  110  A    between atoms: _264  and  _265
REMARK  111  A    between atoms: _264  and  _267
REMARK  112  A    between atoms: _267  and  _268
REMARK  113  A    between atoms: _268  and  _269
REMARK  114  A    between atoms: _269  and  _270
REMARK  115  A    between atoms: _279  and  _281
REMARK  116  A    between atoms: _281  and  _282
REMARK  117  A    between atoms: _281  and  _284
REMARK  118  A    between atoms: _284  and  _285
REMARK  119  A    between atoms: _290  and  _292
REMARK  120  A    between atoms: _292  and  _293
REMARK  121  A    between atoms: _292  and  _295
REMARK  122  A    between atoms: _295  and  _296
REMARK  123  A    between atoms: _296  and  _297
REMARK  124  A    between atoms: _297  and  _298
REMARK  125  A    between atoms: _308  and  _309
REMARK  126  A    between atoms: _314  and  _316
REMARK  127  A    between atoms: _316  and  _317
REMARK  128  A    between atoms: _316  and  _319
REMARK  129  A    between atoms: _319  and  _320
REMARK  130  A    between atoms: _323  and  _325
REMARK  131  A    between atoms: _325  and  _326
REMARK  132  A    between atoms: _325  and  _328
REMARK  133  A    between atoms: _328  and  _329
REMARK  134  A    between atoms: _332  and  _334
REMARK  135  A    between atoms: _334  and  _335
REMARK  136  A    between atoms: _334  and  _337
REMARK  137  A    between atoms: _337  and  _338
REMARK  138  A    between atoms: _341  and  _343
REMARK  139  A    between atoms: _343  and  _344
REMARK  140  A    between atoms: _343  and  _346
REMARK  141  A    between atoms: _346  and  _347
REMARK  142  A    between atoms: _350  and  _352
REMARK  143  A    between atoms: _352  and  _353
REMARK  144  A    between atoms: _352  and  _355
REMARK  145  A    between atoms: _355  and  _356
REMARK  146  A    between atoms: _359  and  _361
REMARK  147  A    between atoms: _361  and  _362
REMARK  148  A    between atoms: _364  and  _366
REMARK  149  A    between atoms: _366  and  _367
REMARK  150  A    between atoms: _370  and  _372
REMARK  151  A    between atoms: _372  and  _373
REMARK  152  A    between atoms: _372  and  _375
REMARK  153  A    between atoms: _375  and  _376
REMARK  154  A    between atoms: _379  and  _381
REMARK  155  A    between atoms: _381  and  _382
REMARK  156  A    between atoms: _381  and  _384
REMARK  157  A    between atoms: _384  and  _385
REMARK  158  A    between atoms: _388  and  _390
REMARK  159  A    between atoms: _390  and  _391
REMARK  160  A    between atoms: _390  and  _393
REMARK  161  A    between atoms: _393  and  _394
REMARK  162  A    between atoms: _397  and  _399
REMARK  163  A    between atoms: _399  and  _400
REMARK  164  A    between atoms: _399  and  _402
REMARK  165  A    between atoms: _402  and  _403
REMARK  166  A    between atoms: _406  and  _408
REMARK  167  A    between atoms: _408  and  _409
REMARK  168  A    between atoms: _408  and  _411
REMARK  169  A    between atoms: _411  and  _412
REMARK  170  A    between atoms: _415  and  _417
REMARK  171  A    between atoms: _417  and  _418
REMARK  172  A    between atoms: _420  and  _422
REMARK  173  A    between atoms: _422  and  _423
REMARK  174  A    between atoms: _425  and  _427
REMARK  175  A    between atoms: _427  and  _428
REMARK  176  A    between atoms: _427  and  _430
REMARK  177  A    between atoms: _430  and  _431
REMARK  178  A    between atoms: _434  and  _436
REMARK  179  A    between atoms: _436  and  _437
REMARK  180  A    between atoms: _439  and  _441
REMARK  181  A    between atoms: _441  and  _442
REMARK  182  A    between atoms: _444  and  _446
REMARK  183  A    between atoms: _446  and  _447
REMARK  184  A    between atoms: _446  and  _449
REMARK  185  A    between atoms: _449  and  _450
REMARK  186  A    between atoms: _456  and  _458
REMARK  187  A    between atoms: _458  and  _459
REMARK  188  A    between atoms: _458  and  _461
REMARK  189  A    between atoms: _461  and  _462
REMARK  190  A    between atoms: _465  and  _467
REMARK  191  A    between atoms: _467  and  _468
REMARK  192  A    between atoms: _467  and  _470
REMARK  193  A    between atoms: _470  and  _471
REMARK  194  A    between atoms: _474  and  _476
REMARK  195  A    between atoms: _476  and  _477
REMARK  196  A    between atoms: _476  and  _479
REMARK  197  A    between atoms: _479  and  _480
REMARK  198  A    between atoms: _484  and  _485
REMARK  199  A    between atoms: _490  and  _492
REMARK  200  A    between atoms: _492  and  _493
REMARK  201  A    between atoms: _492  and  _495
REMARK  202  A    between atoms: _495  and  _496
REMARK  203  A    between atoms: _499  and  _501
REMARK  204  A    between atoms: _501  and  _502
REMARK  205  A    between atoms: _501  and  _504
REMARK  206  A    between atoms: _504  and  _505
REMARK  207  A    between atoms: _510  and  _512
REMARK  208  A    between atoms: _512  and  _513
REMARK  209  A    between atoms: _512  and  _515
REMARK  210  A    between atoms: _518  and  _520
REMARK  211  A    between atoms: _520  and  _521
REMARK  212  A    between atoms: _520  and  _523
REMARK  213  A    between atoms: _523  and  _524
REMARK  214  A    between atoms: _527  and  _529
REMARK  215  A    between atoms: _529  and  _530
REMARK  216  A    between atoms: _532  and  _534
REMARK  217  A    between atoms: _534  and  _535
REMARK  218  A    between atoms: _534  and  _537
REMARK  219  A    between atoms: _537  and  _538
REMARK  220  A    between atoms: _538  and  _539
REMARK  221  A    between atoms: _539  and  _540
REMARK                            x       y       z     vdW  Elec       q    Type
REMARK                         _______ _______ _______ _____ _____    ______ ____
ROOT
ATOM      1  O   HOH     1      11.919  27.134   9.858  0.00  0.00    +0.000 OA
ENDROOT
TORSDOF 0
REMARK  Name = ../refined-set-2016/2o4n/2o4n_pocket.pdb
REMARK  221 active torsions:
REMARK  status: ('A' for Active; 'I' for Inactive)
REMARK    1  A    between atoms: _1  and  _3
REMARK    2  A    between atoms: _3  and  _4
REMARK    3  A    between atoms: _3  and  _6
REMARK    4  A    between atoms: _6  and  _7
REMARK    5  A    between atoms: _7  and  _8
REMARK    6  A    between atoms: _8  and  _9
REMARK    7  A    between atoms: _18  and  _20
REMARK    8  A    between atoms: _20  and  _21
REMARK    9  A    between atoms: _20  and  _23
REMARK   10  A    between atoms: _23  and  _24
REMARK   11  A    between atoms: _27  and  _29
REMARK   12  A    between atoms: _29  and  _30
REMARK   13  A    between atoms: _29  and  _32
REMARK   14  A    between atoms: _32  and  _33
REMARK   15  A    between atoms: _36  and  _38
REMARK   16  A    between atoms: _38  and  _39
REMARK   17  A    between atoms: _38  and  _41
REMARK   18  A    between atoms: _41  and  _42
REMARK   19  A    between atoms: _45  and  _47
REMARK   20  A    between atoms: _47  and  _48
REMARK   21  A    between atoms: _47  and  _50
REMARK   22  A    between atoms: _50  and  _51
REMARK   23  A    between atoms: _54  and  _56
REMARK   24  A    between atoms: _56  and  _57
REMARK   25  A    between atoms: _56  and  _59
REMARK   26  A    between atoms: _59  and  _60
REMARK   27  A    between atoms: _63  and  _65
REMARK   28  A    between atoms: _65  and  _66
REMARK   29  A    between atoms: _68  and  _70
REMARK   30  A    between atoms: _70  and  _71
REMARK   31  A    between atoms: _74  and  _76
REMARK   32  A    between atoms: _76  and  _77
REMARK   33  A    between atoms: _76  and  _79
REMARK   34  A    between atoms: _79  and  _80
REMARK   35  A    between atoms: _83  and  _85
REMARK   36  A    between atoms: _85  and  _86
REMARK   37  A    between atoms: _85  and  _88
REMARK   38  A    between atoms: _88  and  _89
REMARK   39  A    between atoms: _92  and  _94
REMARK   40  A    between atoms: _94  and  _95
REMARK   41  A    between atoms: _94  and  _97
REMARK   42  A    between atoms: _97  and  _98
REMARK   43  A    between atoms: _101  and  _103
REMARK   44  A    between atoms: _103  and  _104
REMARK   45  A    between atoms: _103  and  _106
REMARK   46  A    between atoms: _106  and  _107
REMARK   47  A    between atoms: _110  and  _112
REMARK   48  A    between atoms: _112  and  _113
REMARK   49  A    between atoms: _112  and  _115
REMARK   50  A    between atoms: _115  and  _116
REMARK   51  A    between atoms: _119  and  _121
REMARK   52  A    between atoms: _121  and  _122
REMARK   53  A    between atoms: _121  and  _124
REMARK   54  A    between atoms: _124  and  _125
REMARK   55  A    between atoms: _125  and  _126
REMARK   56  A    between atoms: _128  and  _130
REMARK   57  A    between atoms: _130  and  _131
REMARK   58  A    between atoms: _130  and  _133
REMARK   59  A    between atoms: _133  and  _134
REMARK   60  A    between atoms: _137  and  _139
REMARK   61  A    between atoms: _139  and  _140
REMARK   62  A    between atoms: _142  and  _144
REMARK   63  A    between atoms: _144  and  _145
REMARK   64  A    between atoms: _147  and  _149
REMARK   65  A    between atoms: _149  and  _150
REMARK   66  A    between atoms: _149  and  _152
REMARK   67  A    between atoms: _152  and  _153
REMARK   68  A    between atoms: _156  and  _158
REMARK   69  A    between atoms: _158  and  _159
REMARK   70  A    between atoms: _161  and  _163
REMARK   71  A    between atoms: _163  and  _164
REMARK   72  A    between atoms: _166  and  _168
REMARK   73  A    between atoms: _168  and  _169
REMARK   74  A    between atoms: _168  and  _171
REMARK   75  A    between atoms: _171  and  _172
REMARK   76  A    between atoms: _178  and  _180
REMARK   77  A    between atoms: _180  and  _181
REMARK   78  A    between atoms: _180  and  _183
REMARK   79  A    between atoms: _183  and  _184
REMARK   80  A    between atoms: _187  and  _189
REMARK   81  A    between atoms: _189  and  _190
REMARK   82  A    between atoms: _189  and  _192
REMARK   83  A    between atoms: _195  and  _197
REMARK   84  A    between atoms: _197  and  _198
REMARK   85  A    between atoms: _197  and  _200
REMARK   86  A    between atoms: _200  and  _201
REMARK   87  A    between atoms: _204  and  _206
REMARK   88  A    between atoms: _206  and  _207
REMARK   89  A    between atoms: _206  and  _209
REMARK   90  A    between atoms: _209  and  _210
REMARK   91  A    between atoms: _214  and  _215
REMARK   92  A    between atoms: _220  and  _222
REMARK   93  A    between atoms: _222  and  _223
REMARK   94  A    between atoms: _222  and  _225
REMARK   95  A    between atoms: _225  and  _226
REMARK   96  A    between atoms: _229  and  _231
REMARK   97  A    between atoms: _231  and  _232
REMARK   98  A    between atoms: _231  and  _234
REMARK   99  A    between atoms: _234  and  _235
REMARK  100  A    between atoms: _240  and  _242
REMARK  101  A    between atoms: _242  and  _243
REMARK  102  A    between atoms: _242  and  _245
REMARK  103  A    between atoms: _248  and  _250
REMARK  104  A    between atoms: _250  and  _251
REMARK  105  A    between atoms: _250  and  _253
REMARK  106  A    between atoms: _253  and  _254
REMARK  107  A    between atoms: _257  and  _259
REMARK  108  A    between atoms: _259  and  _260
REMARK  109  A    between atoms: _262  and  _264
REMARK  110  A    between atoms: _264  and  _265
REMARK  111  A    between atoms: _264  and  _267
REMARK  112  A    between atoms: _267  and  _268
REMARK  113  A    between atoms: _268  and  _269
REMARK  114  A    between atoms: _269  and  _270
REMARK  115  A    between atoms: _279  and  _281
REMARK  116  A    between atoms: _281  and  _282
REMARK  117  A    between atoms: _281  and  _284
REMARK  118  A    between atoms: _284  and  _285
REMARK  119  A    between atoms: _290  and  _292
REMARK  120  A    between atoms: _292  and  _293
REMARK  121  A    between atoms: _292  and  _295
REMARK  122  A    between atoms: _295  and  _296
REMARK  123  A    between atoms: _296  and  _297
REMARK  124  A    between atoms: _297  and  _298
REMARK  125  A    between atoms: _308  and  _309
REMARK  126  A    between atoms: _314  and  _316
REMARK  127  A    between atoms: _316  and  _317
REMARK  128  A    between atoms: _316  and  _319
REMARK  129  A    between atoms: _319  and  _320
REMARK  130  A    between atoms: _323  and  _325
REMARK  131  A    between atoms: _325  and  _326
REMARK  132  A    between atoms: _325  and  _328
REMARK  133  A    between atoms: _328  and  _329
REMARK  134  A    between atoms: _332  and  _334
REMARK  135  A    between atoms: _334  and  _335
REMARK  136  A    between atoms: _334  and  _337
REMARK  137  A    between atoms: _337  and  _338
REMARK  138  A    between atoms: _341  and  _343
REMARK  139  A    between atoms: _343  and  _344
REMARK  140  A    between atoms: _343  and  _346
REMARK  141  A    between atoms: _346  and  _347
REMARK  142  A    between atoms: _350  and  _352
REMARK  143  A    between atoms: _352  and  _353
REMARK  144  A    between atoms: _352  and  _355
REMARK  145  A    between atoms: _355  and  _356
REMARK  146  A    between atoms: _359  and  _361
REMARK  147  A    between atoms: _361  and  _362
REMARK  148  A    between atoms: _364  and  _366
REMARK  149  A    between atoms: _366  and  _367
REMARK  150  A    between atoms: _370  and  _372
REMARK  151  A    between atoms: _372  and  _373
REMARK  152  A    between atoms: _372  and  _375
REMARK  153  A    between atoms: _375  and  _376
REMARK  154  A    between atoms: _379  and  _381
REMARK  155  A    between atoms: _381  and  _382
REMARK  156  A    between atoms: _381  and  _384
REMARK  157  A    between atoms: _384  and  _385
REMARK  158  A    between atoms: _388  and  _390
REMARK  159  A    between atoms: _390  and  _391
REMARK  160  A    between atoms: _390  and  _393
REMARK  161  A    between atoms: _393  and  _394
REMARK  162  A    between atoms: _397  and  _399
REMARK  163  A    between atoms: _399  and  _400
REMARK  164  A    between atoms: _399  and  _402
REMARK  165  A    between atoms: _402  and  _403
REMARK  166  A    between atoms: _406  and  _408
REMARK  167  A    between atoms: _408  and  _409
REMARK  168  A    between atoms: _408  and  _411
REMARK  169  A    between atoms: _411  and  _412
REMARK  170  A    between atoms: _415  and  _417
REMARK  171  A    between atoms: _417  and  _418
REMARK  172  A    between atoms: _420  and  _422
REMARK  173  A    between atoms: _422  and  _423
REMARK  174  A    between atoms: _425  and  _427
REMARK  175  A    between atoms: _427  and  _428
REMARK  176  A    between atoms: _427  and  _430
REMARK  177  A    between atoms: _430  and  _431
REMARK  178  A    between atoms: _434  and  _436
REMARK  179  A    between atoms: _436  and  _437
REMARK  180  A    between atoms: _439  and  _441
REMARK  181  A    between atoms: _441  and  _442
REMARK  182  A    between atoms: _444  and  _446
REMARK  183  A    between atoms: _446  and  _447
REMARK  184  A    between atoms: _446  and  _449
REMARK  185  A    between atoms: _449  and  _450
REMARK  186  A    between atoms: _456  and  _458
REMARK  187  A    between atoms: _458  and  _459
REMARK  188  A    between atoms: _458  and  _461
REMARK  189  A    between atoms: _461  and  _462
REMARK  190  A    between atoms: _465  and  _467
REMARK  191  A    between atoms: _467  and  _468
REMARK  192  A    between atoms: _467  and  _470
REMARK  193  A    between atoms: _470  and  _471
REMARK  194  A    between atoms: _474  and  _476
REMARK  195  A    between atoms: _476  and  _477
REMARK  196  A    between atoms: _476  and  _479
REMARK  197  A    between atoms: _479  and  _480
REMARK  198  A    between atoms: _484  and  _485
REMARK  199  A    between atoms: _490  and  _492
REMARK  200  A    between atoms: _492  and  _493
REMARK  201  A    between atoms: _492  and  _495
REMARK  202  A    between atoms: _495  and  _496
REMARK  203  A    between atoms: _499  and  _501
REMARK  204  A    between atoms: _501  and  _502
REMARK  205  A    between atoms: _501  and  _504
REMARK  206  A    between atoms: _504  and  _505
REMARK  207  A    between atoms: _510  and  _512
REMARK  208  A    between atoms: _512  and  _513
REMARK  209  A    between atoms: _512  and  _515
REMARK  210  A    between atoms: _518  and  _520
REMARK  211  A    between atoms: _520  and  _521
REMARK  212  A    between atoms: _520  and  _523
REMARK  213  A    between atoms: _523  and  _524
REMARK  214  A    between atoms: _527  and  _529
REMARK  215  A    between atoms: _529  and  _530
REMARK  216  A    between atoms: _532  and  _534
REMARK  217  A    between atoms: _534  and  _535
REMARK  218  A    between atoms: _534  and  _537
REMARK  219  A    between atoms: _537  and  _538
REMARK  220  A    between atoms: _538  and  _539
REMARK  221  A    between atoms: _539  and  _540
REMARK                            x       y       z     vdW  Elec       q    Type
REMARK                         _______ _______ _______ _____ _____    ______ ____
ROOT
ATOM      1  O   HOH     1       3.398  18.570  21.280  0.00  0.00    +0.000 OA
ENDROOT
TORSDOF 0
REMARK  Name = ../refined-set-2016/2o4n/2o4n_pocket.pdb
REMARK  221 active torsions:
REMARK  status: ('A' for Active; 'I' for Inactive)
REMARK    1  A    between atoms: _1  and  _3
REMARK    2  A    between atoms: _3  and  _4
REMARK    3  A    between atoms: _3  and  _6
REMARK    4  A    between atoms: _6  and  _7
REMARK    5  A    between atoms: _7  and  _8
REMARK    6  A    between atoms: _8  and  _9
REMARK    7  A    between atoms: _18  and  _20
REMARK    8  A    between atoms: _20  and  _21
REMARK    9  A    between atoms: _20  and  _23
REMARK   10  A    between atoms: _23  and  _24
REMARK   11  A    between atoms: _27  and  _29
REMARK   12  A    between atoms: _29  and  _30
REMARK   13  A    between atoms: _29  and  _32
REMARK   14  A    between atoms: _32  and  _33
REMARK   15  A    between atoms: _36  and  _38
REMARK   16  A    between atoms: _38  and  _39
REMARK   17  A    between atoms: _38  and  _41
REMARK   18  A    between atoms: _41  and  _42
REMARK   19  A    between atoms: _45  and  _47
REMARK   20  A    between atoms: _47  and  _48
REMARK   21  A    between atoms: _47  and  _50
REMARK   22  A    between atoms: _50  and  _51
REMARK   23  A    between atoms: _54  and  _56
REMARK   24  A    between atoms: _56  and  _57
REMARK   25  A    between atoms: _56  and  _59
REMARK   26  A    between atoms: _59  and  _60
REMARK   27  A    between atoms: _63  and  _65
REMARK   28  A    between atoms: _65  and  _66
REMARK   29  A    between atoms: _68  and  _70
REMARK   30  A    between atoms: _70  and  _71
REMARK   31  A    between atoms: _74  and  _76
REMARK   32  A    between atoms: _76  and  _77
REMARK   33  A    between atoms: _76  and  _79
REMARK   34  A    between atoms: _79  and  _80
REMARK   35  A    between atoms: _83  and  _85
REMARK   36  A    between atoms: _85  and  _86
REMARK   37  A    between atoms: _85  and  _88
REMARK   38  A    between atoms: _88  and  _89
REMARK   39  A    between atoms: _92  and  _94
REMARK   40  A    between atoms: _94  and  _95
REMARK   41  A    between atoms: _94  and  _97
REMARK   42  A    between atoms: _97  and  _98
REMARK   43  A    between atoms: _101  and  _103
REMARK   44  A    between atoms: _103  and  _104
REMARK   45  A    between atoms: _103  and  _106
REMARK   46  A    between atoms: _106  and  _107
REMARK   47  A    between atoms: _110  and  _112
REMARK   48  A    between atoms: _112  and  _113
REMARK   49  A    between atoms: _112  and  _115
REMARK   50  A    between atoms: _115  and  _116
REMARK   51  A    between atoms: _119  and  _121
REMARK   52  A    between atoms: _121  and  _122
REMARK   53  A    between atoms: _121  and  _124
REMARK   54  A    between atoms: _124  and  _125
REMARK   55  A    between atoms: _125  and  _126
REMARK   56  A    between atoms: _128  and  _130
REMARK   57  A    between atoms: _130  and  _131
REMARK   58  A    between atoms: _130  and  _133
REMARK   59  A    between atoms: _133  and  _134
REMARK   60  A    between atoms: _137  and  _139
REMARK   61  A    between atoms: _139  and  _140
REMARK   62  A    between atoms: _142  and  _144
REMARK   63  A    between atoms: _144  and  _145
REMARK   64  A    between atoms: _147  and  _149
REMARK   65  A    between atoms: _149  and  _150
REMARK   66  A    between atoms: _149  and  _152
REMARK   67  A    between atoms: _152  and  _153
REMARK   68  A    between atoms: _156  and  _158
REMARK   69  A    between atoms: _158  and  _159
REMARK   70  A    between atoms: _161  and  _163
REMARK   71  A    between atoms: _163  and  _164
REMARK   72  A    between atoms: _166  and  _168
REMARK   73  A    between atoms: _168  and  _169
REMARK   74  A    between atoms: _168  and  _171
REMARK   75  A    between atoms: _171  and  _172
REMARK   76  A    between atoms: _178  and  _180
REMARK   77  A    between atoms: _180  and  _181
REMARK   78  A    between atoms: _180  and  _183
REMARK   79  A    between atoms: _183  and  _184
REMARK   80  A    between atoms: _187  and  _189
REMARK   81  A    between atoms: _189  and  _190
REMARK   82  A    between atoms: _189  and  _192
REMARK   83  A    between atoms: _195  and  _197
REMARK   84  A    between atoms: _197  and  _198
REMARK   85  A    between atoms: _197  and  _200
REMARK   86  A    between atoms: _200  and  _201
REMARK   87  A    between atoms: _204  and  _206
REMARK   88  A    between atoms: _206  and  _207
REMARK   89  A    between atoms: _206  and  _209
REMARK   90  A    between atoms: _209  and  _210
REMARK   91  A    between atoms: _214  and  _215
REMARK   92  A    between atoms: _220  and  _222
REMARK   93  A    between atoms: _222  and  _223
REMARK   94  A    between atoms: _222  and  _225
REMARK   95  A    between atoms: _225  and  _226
REMARK   96  A    between atoms: _229  and  _231
REMARK   97  A    between atoms: _231  and  _232
REMARK   98  A    between atoms: _231  and  _234
REMARK   99  A    between atoms: _234  and  _235
REMARK  100  A    between atoms: _240  and  _242
REMARK  101  A    between atoms: _242  and  _243
REMARK  102  A    between atoms: _242  and  _245
REMARK  103  A    between atoms: _248  and  _250
REMARK  104  A    between atoms: _250  and  _251
REMARK  105  A    between atoms: _250  and  _253
REMARK  106  A    between atoms: _253  and  _254
REMARK  107  A    between atoms: _257  and  _259
REMARK  108  A    between atoms: _259  and  _260
REMARK  109  A    between atoms: _262  and  _264
REMARK  110  A    between atoms: _264  and  _265
REMARK  111  A    between atoms: _264  and  _267
REMARK  112  A    between atoms: _267  and  _268
REMARK  113  A    between atoms: _268  and  _269
REMARK  114  A    between atoms: _269  and  _270
REMARK  115  A    between atoms: _279  and  _281
REMARK  116  A    between atoms: _281  and  _282
REMARK  117  A    between atoms: _281  and  _284
REMARK  118  A    between atoms: _284  and  _285
REMARK  119  A    between atoms: _290  and  _292
REMARK  120  A    between atoms: _292  and  _293
REMARK  121  A    between atoms: _292  and  _295
REMARK  122  A    between atoms: _295  and  _296
REMARK  123  A    between atoms: _296  and  _297
REMARK  124  A    between atoms: _297  and  _298
REMARK  125  A    between atoms: _308  and  _309
REMARK  126  A    between atoms: _314  and  _316
REMARK  127  A    between atoms: _316  and  _317
REMARK  128  A    between atoms: _316  and  _319
REMARK  129  A    between atoms: _319  and  _320
REMARK  130  A    between atoms: _323  and  _325
REMARK  131  A    between atoms: _325  and  _326
REMARK  132  A    between atoms: _325  and  _328
REMARK  133  A    between atoms: _328  and  _329
REMARK  134  A    between atoms: _332  and  _334
REMARK  135  A    between atoms: _334  and  _335
REMARK  136  A    between atoms: _334  and  _337
REMARK  137  A    between atoms: _337  and  _338
REMARK  138  A    between atoms: _341  and  _343
REMARK  139  A    between atoms: _343  and  _344
REMARK  140  A    between atoms: _343  and  _346
REMARK  141  A    between atoms: _346  and  _347
REMARK  142  A    between atoms: _350  and  _352
REMARK  143  A    between atoms: _352  and  _353
REMARK  144  A    between atoms: _352  and  _355
REMARK  145  A    between atoms: _355  and  _356
REMARK  146  A    between atoms: _359  and  _361
REMARK  147  A    between atoms: _361  and  _362
REMARK  148  A    between atoms: _364  and  _366
REMARK  149  A    between atoms: _366  and  _367
REMARK  150  A    between atoms: _370  and  _372
REMARK  151  A    between atoms: _372  and  _373
REMARK  152  A    between atoms: _372  and  _375
REMARK  153  A    between atoms: _375  and  _376
REMARK  154  A    between atoms: _379  and  _381
REMARK  155  A    between atoms: _381  and  _382
REMARK  156  A    between atoms: _381  and  _384
REMARK  157  A    between atoms: _384  and  _385
REMARK  158  A    between atoms: _388  and  _390
REMARK  159  A    between atoms: _390  and  _391
REMARK  160  A    between atoms: _390  and  _393
REMARK  161  A    between atoms: _393  and  _394
REMARK  162  A    between atoms: _397  and  _399
REMARK  163  A    between atoms: _399  and  _400
REMARK  164  A    between atoms: _399  and  _402
REMARK  165  A    between atoms: _402  and  _403
REMARK  166  A    between atoms: _406  and  _408
REMARK  167  A    between atoms: _408  and  _409
REMARK  168  A    between atoms: _408  and  _411
REMARK  169  A    between atoms: _411  and  _412
REMARK  170  A    between atoms: _415  and  _417
REMARK  171  A    between atoms: _417  and  _418
REMARK  172  A    between atoms: _420  and  _422
REMARK  173  A    between atoms: _422  and  _423
REMARK  174  A    between atoms: _425  and  _427
REMARK  175  A    between atoms: _427  and  _428
REMARK  176  A    between atoms: _427  and  _430
REMARK  177  A    between atoms: _430  and  _431
REMARK  178  A    between atoms: _434  and  _436
REMARK  179  A    between atoms: _436  and  _437
REMARK  180  A    between atoms: _439  and  _441
REMARK  181  A    between atoms: _441  and  _442
REMARK  182  A    between atoms: _444  and  _446
REMARK  183  A    between atoms: _446  and  _447
REMARK  184  A    between atoms: _446  and  _449
REMARK  185  A    between atoms: _449  and  _450
REMARK  186  A    between atoms: _456  and  _458
REMARK  187  A    between atoms: _458  and  _459
REMARK  188  A    between atoms: _458  and  _461
REMARK  189  A    between atoms: _461  and  _462
REMARK  190  A    between atoms: _465  and  _467
REMARK  191  A    between atoms: _467  and  _468
REMARK  192  A    between atoms: _467  and  _470
REMARK  193  A    between atoms: _470  and  _471
REMARK  194  A    between atoms: _474  and  _476
REMARK  195  A    between atoms: _476  and  _477
REMARK  196  A    between atoms: _476  and  _479
REMARK  197  A    between atoms: _479  and  _480
REMARK  198  A    between atoms: _484  and  _485
REMARK  199  A    between atoms: _490  and  _492
REMARK  200  A    between atoms: _492  and  _493
REMARK  201  A    between atoms: _492  and  _495
REMARK  202  A    between atoms: _495  and  _496
REMARK  203  A    between atoms: _499  and  _501
REMARK  204  A    between atoms: _501  and  _502
REMARK  205  A    between atoms: _501  and  _504
REMARK  206  A    between atoms: _504  and  _505
REMARK  207  A    between atoms: _510  and  _512
REMARK  208  A    between atoms: _512  and  _513
REMARK  209  A    between atoms: _512  and  _515
REMARK  210  A    between atoms: _518  and  _520
REMARK  211  A    between atoms: _520  and  _521
REMARK  212  A    between atoms: _520  and  _523
REMARK  213  A    between atoms: _523  and  _524
REMARK  214  A    between atoms: _527  and  _529
REMARK  215  A    between atoms: _529  and  _530
REMARK  216  A    between atoms: _532  and  _534
REMARK  217  A    between atoms: _534  and  _535
REMARK  218  A    between atoms: _534  and  _537
REMARK  219  A    between atoms: _537  and  _538
REMARK  220  A    between atoms: _538  and  _539
REMARK  221  A    between atoms: _539  and  _540
REMARK                            x       y       z     vdW  Elec       q    Type
REMARK                         _______ _______ _______ _____ _____    ______ ____
ROOT
ATOM      1  O   HOH     1       3.027  19.678  23.694  0.00  0.00    +0.000 OA
ENDROOT
TORSDOF 0
REMARK  Name = ../refined-set-2016/2o4n/2o4n_pocket.pdb
REMARK  221 active torsions:
REMARK  status: ('A' for Active; 'I' for Inactive)
REMARK    1  A    between atoms: _1  and  _3
REMARK    2  A    between atoms: _3  and  _4
REMARK    3  A    between atoms: _3  and  _6
REMARK    4  A    between atoms: _6  and  _7
REMARK    5  A    between atoms: _7  and  _8
REMARK    6  A    between atoms: _8  and  _9
REMARK    7  A    between atoms: _18  and  _20
REMARK    8  A    between atoms: _20  and  _21
REMARK    9  A    between atoms: _20  and  _23
REMARK   10  A    between atoms: _23  and  _24
REMARK   11  A    between atoms: _27  and  _29
REMARK   12  A    between atoms: _29  and  _30
REMARK   13  A    between atoms: _29  and  _32
REMARK   14  A    between atoms: _32  and  _33
REMARK   15  A    between atoms: _36  and  _38
REMARK   16  A    between atoms: _38  and  _39
REMARK   17  A    between atoms: _38  and  _41
REMARK   18  A    between atoms: _41  and  _42
REMARK   19  A    between atoms: _45  and  _47
REMARK   20  A    between atoms: _47  and  _48
REMARK   21  A    between atoms: _47  and  _50
REMARK   22  A    between atoms: _50  and  _51
REMARK   23  A    between atoms: _54  and  _56
REMARK   24  A    between atoms: _56  and  _57
REMARK   25  A    between atoms: _56  and  _59
REMARK   26  A    between atoms: _59  and  _60
REMARK   27  A    between atoms: _63  and  _65
REMARK   28  A    between atoms: _65  and  _66
REMARK   29  A    between atoms: _68  and  _70
REMARK   30  A    between atoms: _70  and  _71
REMARK   31  A    between atoms: _74  and  _76
REMARK   32  A    between atoms: _76  and  _77
REMARK   33  A    between atoms: _76  and  _79
REMARK   34  A    between atoms: _79  and  _80
REMARK   35  A    between atoms: _83  and  _85
REMARK   36  A    between atoms: _85  and  _86
REMARK   37  A    between atoms: _85  and  _88
REMARK   38  A    between atoms: _88  and  _89
REMARK   39  A    between atoms: _92  and  _94
REMARK   40  A    between atoms: _94  and  _95
REMARK   41  A    between atoms: _94  and  _97
REMARK   42  A    between atoms: _97  and  _98
REMARK   43  A    between atoms: _101  and  _103
REMARK   44  A    between atoms: _103  and  _104
REMARK   45  A    between atoms: _103  and  _106
REMARK   46  A    between atoms: _106  and  _107
REMARK   47  A    between atoms: _110  and  _112
REMARK   48  A    between atoms: _112  and  _113
REMARK   49  A    between atoms: _112  and  _115
REMARK   50  A    between atoms: _115  and  _116
REMARK   51  A    between atoms: _119  and  _121
REMARK   52  A    between atoms: _121  and  _122
REMARK   53  A    between atoms: _121  and  _124
REMARK   54  A    between atoms: _124  and  _125
REMARK   55  A    between atoms: _125  and  _126
REMARK   56  A    between atoms: _128  and  _130
REMARK   57  A    between atoms: _130  and  _131
REMARK   58  A    between atoms: _130  and  _133
REMARK   59  A    between atoms: _133  and  _134
REMARK   60  A    between atoms: _137  and  _139
REMARK   61  A    between atoms: _139  and  _140
REMARK   62  A    between atoms: _142  and  _144
REMARK   63  A    between atoms: _144  and  _145
REMARK   64  A    between atoms: _147  and  _149
REMARK   65  A    between atoms: _149  and  _150
REMARK   66  A    between atoms: _149  and  _152
REMARK   67  A    between atoms: _152  and  _153
REMARK   68  A    between atoms: _156  and  _158
REMARK   69  A    between atoms: _158  and  _159
REMARK   70  A    between atoms: _161  and  _163
REMARK   71  A    between atoms: _163  and  _164
REMARK   72  A    between atoms: _166  and  _168
REMARK   73  A    between atoms: _168  and  _169
REMARK   74  A    between atoms: _168  and  _171
REMARK   75  A    between atoms: _171  and  _172
REMARK   76  A    between atoms: _178  and  _180
REMARK   77  A    between atoms: _180  and  _181
REMARK   78  A    between atoms: _180  and  _183
REMARK   79  A    between atoms: _183  and  _184
REMARK   80  A    between atoms: _187  and  _189
REMARK   81  A    between atoms: _189  and  _190
REMARK   82  A    between atoms: _189  and  _192
REMARK   83  A    between atoms: _195  and  _197
REMARK   84  A    between atoms: _197  and  _198
REMARK   85  A    between atoms: _197  and  _200
REMARK   86  A    between atoms: _200  and  _201
REMARK   87  A    between atoms: _204  and  _206
REMARK   88  A    between atoms: _206  and  _207
REMARK   89  A    between atoms: _206  and  _209
REMARK   90  A    between atoms: _209  and  _210
REMARK   91  A    between atoms: _214  and  _215
REMARK   92  A    between atoms: _220  and  _222
REMARK   93  A    between atoms: _222  and  _223
REMARK   94  A    between atoms: _222  and  _225
REMARK   95  A    between atoms: _225  and  _226
REMARK   96  A    between atoms: _229  and  _231
REMARK   97  A    between atoms: _231  and  _232
REMARK   98  A    between atoms: _231  and  _234
REMARK   99  A    between atoms: _234  and  _235
REMARK  100  A    between atoms: _240  and  _242
REMARK  101  A    between atoms: _242  and  _243
REMARK  102  A    between atoms: _242  and  _245
REMARK  103  A    between atoms: _248  and  _250
REMARK  104  A    between atoms: _250  and  _251
REMARK  105  A    between atoms: _250  and  _253
REMARK  106  A    between atoms: _253  and  _254
REMARK  107  A    between atoms: _257  and  _259
REMARK  108  A    between atoms: _259  and  _260
REMARK  109  A    between atoms: _262  and  _264
REMARK  110  A    between atoms: _264  and  _265
REMARK  111  A    between atoms: _264  and  _267
REMARK  112  A    between atoms: _267  and  _268
REMARK  113  A    between atoms: _268  and  _269
REMARK  114  A    between atoms: _269  and  _270
REMARK  115  A    between atoms: _279  and  _281
REMARK  116  A    between atoms: _281  and  _282
REMARK  117  A    between atoms: _281  and  _284
REMARK  118  A    between atoms: _284  and  _285
REMARK  119  A    between atoms: _290  and  _292
REMARK  120  A    between atoms: _292  and  _293
REMARK  121  A    between atoms: _292  and  _295
REMARK  122  A    between atoms: _295  and  _296
REMARK  123  A    between atoms: _296  and  _297
REMARK  124  A    between atoms: _297  and  _298
REMARK  125  A    between atoms: _308  and  _309
REMARK  126  A    between atoms: _314  and  _316
REMARK  127  A    between atoms: _316  and  _317
REMARK  128  A    between atoms: _316  and  _319
REMARK  129  A    between atoms: _319  and  _320
REMARK  130  A    between atoms: _323  and  _325
REMARK  131  A    between atoms: _325  and  _326
REMARK  132  A    between atoms: _325  and  _328
REMARK  133  A    between atoms: _328  and  _329
REMARK  134  A    between atoms: _332  and  _334
REMARK  135  A    between atoms: _334  and  _335
REMARK  136  A    between atoms: _334  and  _337
REMARK  137  A    between atoms: _337  and  _338
REMARK  138  A    between atoms: _341  and  _343
REMARK  139  A    between atoms: _343  and  _344
REMARK  140  A    between atoms: _343  and  _346
REMARK  141  A    between atoms: _346  and  _347
REMARK  142  A    between atoms: _350  and  _352
REMARK  143  A    between atoms: _352  and  _353
REMARK  144  A    between atoms: _352  and  _355
REMARK  145  A    between atoms: _355  and  _356
REMARK  146  A    between atoms: _359  and  _361
REMARK  147  A    between atoms: _361  and  _362
REMARK  148  A    between atoms: _364  and  _366
REMARK  149  A    between atoms: _366  and  _367
REMARK  150  A    between atoms: _370  and  _372
REMARK  151  A    between atoms: _372  and  _373
REMARK  152  A    between atoms: _372  and  _375
REMARK  153  A    between atoms: _375  and  _376
REMARK  154  A    between atoms: _379  and  _381
REMARK  155  A    between atoms: _381  and  _382
REMARK  156  A    between atoms: _381  and  _384
REMARK  157  A    between atoms: _384  and  _385
REMARK  158  A    between atoms: _388  and  _390
REMARK  159  A    between atoms: _390  and  _391
REMARK  160  A    between atoms: _390  and  _393
REMARK  161  A    between atoms: _393  and  _394
REMARK  162  A    between atoms: _397  and  _399
REMARK  163  A    between atoms: _399  and  _400
REMARK  164  A    between atoms: _399  and  _402
REMARK  165  A    between atoms: _402  and  _403
REMARK  166  A    between atoms: _406  and  _408
REMARK  167  A    between atoms: _408  and  _409
REMARK  168  A    between atoms: _408  and  _411
REMARK  169  A    between atoms: _411  and  _412
REMARK  170  A    between atoms: _415  and  _417
REMARK  171  A    between atoms: _417  and  _418
REMARK  172  A    between atoms: _420  and  _422
REMARK  173  A    between atoms: _422  and  _423
REMARK  174  A    between atoms: _425  and  _427
REMARK  175  A    between atoms: _427  and  _428
REMARK  176  A    between atoms: _427  and  _430
REMARK  177  A    between atoms: _430  and  _431
REMARK  178  A    between atoms: _434  and  _436
REMARK  179  A    between atoms: _436  and  _437
REMARK  180  A    between atoms: _439  and  _441
REMARK  181  A    between atoms: _441  and  _442
REMARK  182  A    between atoms: _444  and  _446
REMARK  183  A    between atoms: _446  and  _447
REMARK  184  A    between atoms: _446  and  _449
REMARK  185  A    between atoms: _449  and  _450
REMARK  186  A    between atoms: _456  and  _458
REMARK  187  A    between atoms: _458  and  _459
REMARK  188  A    between atoms: _458  and  _461
REMARK  189  A    between atoms: _461  and  _462
REMARK  190  A    between atoms: _465  and  _467
REMARK  191  A    between atoms: _467  and  _468
REMARK  192  A    between atoms: _467  and  _470
REMARK  193  A    between atoms: _470  and  _471
REMARK  194  A    between atoms: _474  and  _476
REMARK  195  A    between atoms: _476  and  _477
REMARK  196  A    between atoms: _476  and  _479
REMARK  197  A    between atoms: _479  and  _480
REMARK  198  A    between atoms: _484  and  _485
REMARK  199  A    between atoms: _490  and  _492
REMARK  200  A    between atoms: _492  and  _493
REMARK  201  A    between atoms: _492  and  _495
REMARK  202  A    between atoms: _495  and  _496
REMARK  203  A    between atoms: _499  and  _501
REMARK  204  A    between atoms: _501  and  _502
REMARK  205  A    between atoms: _501  and  _504
REMARK  206  A    between atoms: _504  and  _505
REMARK  207  A    between atoms: _510  and  _512
REMARK  208  A    between atoms: _512  and  _513
REMARK  209  A    between atoms: _512  and  _515
REMARK  210  A    between atoms: _518  and  _520
REMARK  211  A    between atoms: _520  and  _521
REMARK  212  A    between atoms: _520  and  _523
REMARK  213  A    between atoms: _523  and  _524
REMARK  214  A    between atoms: _527  and  _529
REMARK  215  A    between atoms: _529  and  _530
REMARK  216  A    between atoms: _532  and  _534
REMARK  217  A    between atoms: _534  and  _535
REMARK  218  A    between atoms: _534  and  _537
REMARK  219  A    between atoms: _537  and  _538
REMARK  220  A    between atoms: _538  and  _539
REMARK  221  A    between atoms: _539  and  _540
REMARK                            x       y       z     vdW  Elec       q    Type
REMARK                         _______ _______ _______ _____ _____    ______ ____
ROOT
ATOM      1  O   HOH     1       4.826  14.206  26.647  0.00  0.00    +0.000 OA
ENDROOT
TORSDOF 0
