REMARK  Name = ../refined-set-2016/3ebi/3ebi_pocket.pdb
REMARK  247 active torsions:
REMARK  status: ('A' for Active; 'I' for Inactive)
REMARK    1  A    between atoms: _1  and  _3
REMARK    2  A    between atoms: _3  and  _4
REMARK    3  A    between atoms: _7  and  _9
REMARK    4  A    between atoms: _9  and  _10
REMARK    5  A    between atoms: _9  and  _12
REMARK    6  A    between atoms: _12  and  _13
REMARK    7  A    between atoms: _16  and  _18
REMARK    8  A    between atoms: _18  and  _19
REMARK    9  A    between atoms: _18  and  _21
REMARK   10  A    between atoms: _21  and  _22
REMARK   11  A    between atoms: _25  and  _27
REMARK   12  A    between atoms: _27  and  _28
REMARK   13  A    between atoms: _30  and  _32
REMARK   14  A    between atoms: _32  and  _33
REMARK   15  A    between atoms: _32  and  _35
REMARK   16  A    between atoms: _35  and  _36
REMARK   17  A    between atoms: _36  and  _37
REMARK   18  A    between atoms: _42  and  _44
REMARK   19  A    between atoms: _44  and  _45
REMARK   20  A    between atoms: _44  and  _47
REMARK   21  A    between atoms: _49  and  _51
REMARK   22  A    between atoms: _51  and  _52
REMARK   23  A    between atoms: _51  and  _54
REMARK   24  A    between atoms: _54  and  _55
REMARK   25  A    between atoms: _55  and  _56
REMARK   26  A    between atoms: _59  and  _61
REMARK   27  A    between atoms: _61  and  _62
REMARK   28  A    between atoms: _65  and  _67
REMARK   29  A    between atoms: _67  and  _68
REMARK   30  A    between atoms: _67  and  _70
REMARK   31  A    between atoms: _70  and  _71
REMARK   32  A    between atoms: _74  and  _76
REMARK   33  A    between atoms: _76  and  _77
REMARK   34  A    between atoms: _79  and  _81
REMARK   35  A    between atoms: _81  and  _82
REMARK   36  A    between atoms: _81  and  _84
REMARK   37  A    between atoms: _84  and  _85
REMARK   38  A    between atoms: _90  and  _91
REMARK   39  A    between atoms: _93  and  _95
REMARK   40  A    between atoms: _95  and  _96
REMARK   41  A    between atoms: _95  and  _98
REMARK   42  A    between atoms: _98  and  _99
REMARK   43  A    between atoms: _102  and  _104
REMARK   44  A    between atoms: _104  and  _105
REMARK   45  A    between atoms: _104  and  _107
REMARK   46  A    between atoms: _107  and  _108
REMARK   47  A    between atoms: _114  and  _116
REMARK   48  A    between atoms: _116  and  _117
REMARK   49  A    between atoms: _116  and  _119
REMARK   50  A    between atoms: _119  and  _120
REMARK   51  A    between atoms: _125  and  _127
REMARK   52  A    between atoms: _127  and  _128
REMARK   53  A    between atoms: _127  and  _130
REMARK   54  A    between atoms: _133  and  _135
REMARK   55  A    between atoms: _135  and  _136
REMARK   56  A    between atoms: _138  and  _140
REMARK   57  A    between atoms: _140  and  _141
REMARK   58  A    between atoms: _144  and  _146
REMARK   59  A    between atoms: _146  and  _147
REMARK   60  A    between atoms: _146  and  _149
REMARK   61  A    between atoms: _149  and  _150
REMARK   62  A    between atoms: _150  and  _151
REMARK   63  A    between atoms: _153  and  _155
REMARK   64  A    between atoms: _155  and  _156
REMARK   65  A    between atoms: _155  and  _158
REMARK   66  A    between atoms: _158  and  _159
REMARK   67  A    between atoms: _159  and  _160
REMARK   68  A    between atoms: _163  and  _165
REMARK   69  A    between atoms: _165  and  _166
REMARK   70  A    between atoms: _165  and  _168
REMARK   71  A    between atoms: _168  and  _169
REMARK   72  A    between atoms: _174  and  _176
REMARK   73  A    between atoms: _176  and  _177
REMARK   74  A    between atoms: _176  and  _179
REMARK   75  A    between atoms: _179  and  _180
REMARK   76  A    between atoms: _183  and  _185
REMARK   77  A    between atoms: _185  and  _186
REMARK   78  A    between atoms: _185  and  _188
REMARK   79  A    between atoms: _188  and  _189
REMARK   80  A    between atoms: _195  and  _197
REMARK   81  A    between atoms: _197  and  _198
REMARK   82  A    between atoms: _197  and  _200
REMARK   83  A    between atoms: _200  and  _201
REMARK   84  A    between atoms: _206  and  _208
REMARK   85  A    between atoms: _208  and  _209
REMARK   86  A    between atoms: _208  and  _211
REMARK   87  A    between atoms: _211  and  _212
REMARK   88  A    between atoms: _217  and  _219
REMARK   89  A    between atoms: _219  and  _220
REMARK   90  A    between atoms: _219  and  _222
REMARK   91  A    between atoms: _222  and  _223
REMARK   92  A    between atoms: _225  and  _227
REMARK   93  A    between atoms: _227  and  _228
REMARK   94  A    between atoms: _227  and  _230
REMARK   95  A    between atoms: _230  and  _231
REMARK   96  A    between atoms: _237  and  _239
REMARK   97  A    between atoms: _239  and  _240
REMARK   98  A    between atoms: _243  and  _245
REMARK   99  A    between atoms: _245  and  _246
REMARK  100  A    between atoms: _245  and  _248
REMARK  101  A    between atoms: _248  and  _249
REMARK  102  A    between atoms: _249  and  _250
REMARK  103  A    between atoms: _250  and  _251
REMARK  104  A    between atoms: _260  and  _262
REMARK  105  A    between atoms: _262  and  _263
REMARK  106  A    between atoms: _262  and  _265
REMARK  107  A    between atoms: _265  and  _266
REMARK  108  A    between atoms: _269  and  _271
REMARK  109  A    between atoms: _271  and  _272
REMARK  110  A    between atoms: _271  and  _274
REMARK  111  A    between atoms: _274  and  _275
REMARK  112  A    between atoms: _278  and  _280
REMARK  113  A    between atoms: _280  and  _281
REMARK  114  A    between atoms: _280  and  _283
REMARK  115  A    between atoms: _283  and  _284
REMARK  116  A    between atoms: _287  and  _289
REMARK  117  A    between atoms: _289  and  _290
REMARK  118  A    between atoms: _289  and  _292
REMARK  119  A    between atoms: _295  and  _297
REMARK  120  A    between atoms: _297  and  _298
REMARK  121  A    between atoms: _297  and  _300
REMARK  122  A    between atoms: _303  and  _305
REMARK  123  A    between atoms: _305  and  _306
REMARK  124  A    between atoms: _308  and  _310
REMARK  125  A    between atoms: _310  and  _311
REMARK  126  A    between atoms: _310  and  _313
REMARK  127  A    between atoms: _313  and  _314
REMARK  128  A    between atoms: _318  and  ZN_601
REMARK  129  A    between atoms: _319  and  _321
REMARK  130  A    between atoms: _321  and  _322
REMARK  131  A    between atoms: _321  and  _324
REMARK  132  A    between atoms: _324  and  _325
REMARK  133  A    between atoms: _325  and  _326
REMARK  134  A    between atoms: _329  and  _331
REMARK  135  A    between atoms: _331  and  _332
REMARK  136  A    between atoms: _331  and  _334
REMARK  137  A    between atoms: _334  and  _335
REMARK  138  A    between atoms: _340  and  _341
REMARK  139  A    between atoms: _343  and  _345
REMARK  140  A    between atoms: _345  and  _346
REMARK  141  A    between atoms: _345  and  _348
REMARK  142  A    between atoms: _348  and  _349
REMARK  143  A    between atoms: _353  and  ZN_601
REMARK  144  A    between atoms: _354  and  _356
REMARK  145  A    between atoms: _356  and  _357
REMARK  146  A    between atoms: _356  and  _359
REMARK  147  A    between atoms: _359  and  _360
REMARK  148  A    between atoms: _365  and  _367
REMARK  149  A    between atoms: _367  and  _368
REMARK  150  A    between atoms: _367  and  _370
REMARK  151  A    between atoms: _370  and  _371
REMARK  152  A    between atoms: _381  and  _383
REMARK  153  A    between atoms: _383  and  _384
REMARK  154  A    between atoms: _383  and  _386
REMARK  155  A    between atoms: _386  and  _387
REMARK  156  A    between atoms: _390  and  _392
REMARK  157  A    between atoms: _392  and  _393
REMARK  158  A    between atoms: _392  and  _395
REMARK  159  A    between atoms: _395  and  _396
REMARK  160  A    between atoms: _396  and  _397
REMARK  161  A    between atoms: _397  and  _398
REMARK  162  A    between atoms: _398  and  _399
REMARK  163  A    between atoms: _403  and  _405
REMARK  164  A    between atoms: _405  and  _406
REMARK  165  A    between atoms: _405  and  _408
REMARK  166  A    between atoms: _408  and  _409
REMARK  167  A    between atoms: _409  and  _410
REMARK  168  A    between atoms: _410  and  _411
REMARK  169  A    between atoms: _411  and  ZN_601
REMARK  170  A    between atoms: _413  and  _415
REMARK  171  A    between atoms: _415  and  _416
REMARK  172  A    between atoms: _418  and  _420
REMARK  173  A    between atoms: _420  and  _421
REMARK  174  A    between atoms: _420  and  _423
REMARK  175  A    between atoms: _423  and  _424
REMARK  176  A    between atoms: _427  and  _429
REMARK  177  A    between atoms: _429  and  _430
REMARK  178  A    between atoms: _429  and  _432
REMARK  179  A    between atoms: _435  and  _437
REMARK  180  A    between atoms: _437  and  _438
REMARK  181  A    between atoms: _437  and  _440
REMARK  182  A    between atoms: _440  and  _441
REMARK  183  A    between atoms: _441  and  _442
REMARK  184  A    between atoms: _445  and  _447
REMARK  185  A    between atoms: _447  and  _448
REMARK  186  A    between atoms: _447  and  _450
REMARK  187  A    between atoms: _450  and  _451
REMARK  188  A    between atoms: _456  and  _458
REMARK  189  A    between atoms: _458  and  _459
REMARK  190  A    between atoms: _458  and  _461
REMARK  191  A    between atoms: _461  and  _462
REMARK  192  A    between atoms: _464  and  _466
REMARK  193  A    between atoms: _466  and  _467
REMARK  194  A    between atoms: _466  and  _469
REMARK  195  A    between atoms: _469  and  _470
REMARK  196  A    between atoms: _470  and  _471
REMARK  197  A    between atoms: _473  and  _475
REMARK  198  A    between atoms: _475  and  _476
REMARK  199  A    between atoms: _475  and  _478
REMARK  200  A    between atoms: _478  and  _479
REMARK  201  A    between atoms: _479  and  _480
REMARK  202  A    between atoms: _483  and  _485
REMARK  203  A    between atoms: _485  and  _486
REMARK  204  A    between atoms: _485  and  _488
REMARK  205  A    between atoms: _488  and  _489
REMARK  206  A    between atoms: _494  and  _496
REMARK  207  A    between atoms: _496  and  _497
REMARK  208  A    between atoms: _496  and  _499
REMARK  209  A    between atoms: _499  and  _500
REMARK  210  A    between atoms: _506  and  _508
REMARK  211  A    between atoms: _508  and  _509
REMARK  212  A    between atoms: _508  and  _511
REMARK  213  A    between atoms: _511  and  _512
REMARK  214  A    between atoms: _517  and  _518
REMARK  215  A    between atoms: _520  and  _522
REMARK  216  A    between atoms: _522  and  _523
REMARK  217  A    between atoms: _522  and  _525
REMARK  218  A    between atoms: _525  and  _526
REMARK  219  A    between atoms: _529  and  _531
REMARK  220  A    between atoms: _531  and  _532
REMARK  221  A    between atoms: _531  and  _534
REMARK  222  A    between atoms: _534  and  _535
REMARK  223  A    between atoms: _540  and  _541
REMARK  224  A    between atoms: _543  and  _545
REMARK  225  A    between atoms: _545  and  _546
REMARK  226  A    between atoms: _545  and  _548
REMARK  227  A    between atoms: _548  and  _549
REMARK  228  A    between atoms: _552  and  _554
REMARK  229  A    between atoms: _554  and  _555
REMARK  230  A    between atoms: _554  and  _557
REMARK  231  A    between atoms: _557  and  _558
REMARK  232  A    between atoms: _558  and  _559
REMARK  233  A    between atoms: _559  and  _560
REMARK  234  A    between atoms: _569  and  _571
REMARK  235  A    between atoms: _571  and  _572
REMARK  236  A    between atoms: _571  and  _574
REMARK  237  A    between atoms: _574  and  _575
REMARK  238  A    between atoms: _575  and  _576
REMARK  239  A    between atoms: _578  and  _580
REMARK  240  A    between atoms: _580  and  _581
REMARK  241  A    between atoms: _580  and  _583
REMARK  242  A    between atoms: _583  and  _584
REMARK  243  A    between atoms: _584  and  _585
REMARK  244  A    between atoms: _590  and  _592
REMARK  245  A    between atoms: _592  and  _593
REMARK  246  A    between atoms: _592  and  _595
REMARK  247  A    between atoms: _595  and  _596
REMARK                            x       y       z     vdW  Elec       q    Type
REMARK                         _______ _______ _______ _____ _____    ______ ____
ROOT
ATOM      1  C   LEU A   2      16.975  16.843  23.490  0.00  0.00    +0.241 C 
ATOM      2  N   THR A   3      15.982  17.175  24.310  0.00  0.00    -0.295 N 
ATOM      3  H   THR A   3      16.208  17.348  25.310  0.00  0.00    +0.150 HD
ATOM      4  O   LEU A   2      16.805  16.533  22.301  0.00  0.00    -0.273 OA
ENDROOT
BRANCH   1   5
ATOM      5  CA  LEU A   2      18.376  16.875  24.136  0.00  0.00    +0.149 C 
BRANCH   5   7
ATOM      6  C   ALA A   1      17.938  15.270  25.952  0.00  0.00    +0.238 C 
ATOM      7  N   LEU A   2      18.371  16.463  25.542  0.00  0.00    -0.297 N 
ATOM      8  H   LEU A   2      18.722  17.134  26.255  0.00  0.00    +0.150 HD
ATOM      9  O   ALA A   1      17.370  14.445  25.201  0.00  0.00    -0.274 OA
BRANCH   6  10
ATOM     10  CA  ALA A   1      18.144  14.971  27.428  0.00  0.00    +0.145 C 
ATOM     11  CB  ALA A   1      16.795  14.906  28.137  0.00  0.00    +0.028 C 
BRANCH  10  12
ATOM     12  N   ALA A   1      19.020  15.951  28.097  0.00  0.00    -0.238 NA
ATOM     13  H   ALA A   1      18.577  16.690  28.679  0.00  0.00    +0.142 HD
ENDBRANCH  10  12
ENDBRANCH   6  10
ENDBRANCH   5   7
BRANCH   5  14
ATOM     14  CB  LEU A   2      19.426  16.088  23.331  0.00  0.00    +0.029 C 
BRANCH  14  15
ATOM     15  CG  LEU A   2      20.818  15.842  23.936  0.00  0.00    +0.002 C 
ATOM     16  CD2 LEU A   2      21.478  17.102  24.550  0.00  0.00    +0.000 C 
ATOM     17  CD1 LEU A   2      21.709  15.248  22.872  0.00  0.00    +0.000 C 
ENDBRANCH  14  15
ENDBRANCH   5  14
ENDBRANCH   1   5
BRANCH   2  18
ATOM     18  CA  THR A   3      14.599  17.309  23.887  0.00  0.00    +0.176 C 
BRANCH  18  19
ATOM     19  C   THR A   3      14.027  18.595  24.500  0.00  0.00    +0.243 C 
ATOM     20  O   THR A   3      14.333  18.942  25.657  0.00  0.00    -0.273 OA
ATOM     21  N   GLY A   4      13.205  19.305  23.731  0.00  0.00    -0.296 N 
ATOM     22  H   GLY A   4      12.851  18.892  22.844  0.00  0.00    +0.150 HD
BRANCH  21  23
ATOM     23  CA  GLY A   4      12.790  20.655  24.110  0.00  0.00    +0.163 C 
BRANCH  23  24
ATOM     24  C   GLY A   4      13.880  21.626  23.683  0.00  0.00    +0.229 C 
ATOM     25  O   GLY A   4      14.505  21.437  22.637  0.00  0.00    -0.286 OA
ENDBRANCH  23  24
ENDBRANCH  21  23
ENDBRANCH  18  19
BRANCH  18  26
ATOM     26  CB  THR A   3      13.767  16.037  24.269  0.00  0.00    +0.137 C 
ATOM     27  CG2 THR A   3      13.714  15.817  25.787  0.00  0.00    +0.034 C 
BRANCH  26  28
ATOM     28  OG1 THR A   3      12.440  16.146  23.747  0.00  0.00    -0.382 OA
ATOM     29  HG1 THR A   3      11.922  15.339  23.993  0.00  0.00    +0.210 HD
ENDBRANCH  26  28
ENDBRANCH  18  26
ENDBRANCH   2  18
TORSDOF 12
REMARK  Name = ../refined-set-2016/3ebi/3ebi_pocket.pdb
REMARK  247 active torsions:
REMARK  status: ('A' for Active; 'I' for Inactive)
REMARK    1  A    between atoms: _1  and  _3
REMARK    2  A    between atoms: _3  and  _4
REMARK    3  A    between atoms: _7  and  _9
REMARK    4  A    between atoms: _9  and  _10
REMARK    5  A    between atoms: _9  and  _12
REMARK    6  A    between atoms: _12  and  _13
REMARK    7  A    between atoms: _16  and  _18
REMARK    8  A    between atoms: _18  and  _19
REMARK    9  A    between atoms: _18  and  _21
REMARK   10  A    between atoms: _21  and  _22
REMARK   11  A    between atoms: _25  and  _27
REMARK   12  A    between atoms: _27  and  _28
REMARK   13  A    between atoms: _30  and  _32
REMARK   14  A    between atoms: _32  and  _33
REMARK   15  A    between atoms: _32  and  _35
REMARK   16  A    between atoms: _35  and  _36
REMARK   17  A    between atoms: _36  and  _37
REMARK   18  A    between atoms: _42  and  _44
REMARK   19  A    between atoms: _44  and  _45
REMARK   20  A    between atoms: _44  and  _47
REMARK   21  A    between atoms: _49  and  _51
REMARK   22  A    between atoms: _51  and  _52
REMARK   23  A    between atoms: _51  and  _54
REMARK   24  A    between atoms: _54  and  _55
REMARK   25  A    between atoms: _55  and  _56
REMARK   26  A    between atoms: _59  and  _61
REMARK   27  A    between atoms: _61  and  _62
REMARK   28  A    between atoms: _65  and  _67
REMARK   29  A    between atoms: _67  and  _68
REMARK   30  A    between atoms: _67  and  _70
REMARK   31  A    between atoms: _70  and  _71
REMARK   32  A    between atoms: _74  and  _76
REMARK   33  A    between atoms: _76  and  _77
REMARK   34  A    between atoms: _79  and  _81
REMARK   35  A    between atoms: _81  and  _82
REMARK   36  A    between atoms: _81  and  _84
REMARK   37  A    between atoms: _84  and  _85
REMARK   38  A    between atoms: _90  and  _91
REMARK   39  A    between atoms: _93  and  _95
REMARK   40  A    between atoms: _95  and  _96
REMARK   41  A    between atoms: _95  and  _98
REMARK   42  A    between atoms: _98  and  _99
REMARK   43  A    between atoms: _102  and  _104
REMARK   44  A    between atoms: _104  and  _105
REMARK   45  A    between atoms: _104  and  _107
REMARK   46  A    between atoms: _107  and  _108
REMARK   47  A    between atoms: _114  and  _116
REMARK   48  A    between atoms: _116  and  _117
REMARK   49  A    between atoms: _116  and  _119
REMARK   50  A    between atoms: _119  and  _120
REMARK   51  A    between atoms: _125  and  _127
REMARK   52  A    between atoms: _127  and  _128
REMARK   53  A    between atoms: _127  and  _130
REMARK   54  A    between atoms: _133  and  _135
REMARK   55  A    between atoms: _135  and  _136
REMARK   56  A    between atoms: _138  and  _140
REMARK   57  A    between atoms: _140  and  _141
REMARK   58  A    between atoms: _144  and  _146
REMARK   59  A    between atoms: _146  and  _147
REMARK   60  A    between atoms: _146  and  _149
REMARK   61  A    between atoms: _149  and  _150
REMARK   62  A    between atoms: _150  and  _151
REMARK   63  A    between atoms: _153  and  _155
REMARK   64  A    between atoms: _155  and  _156
REMARK   65  A    between atoms: _155  and  _158
REMARK   66  A    between atoms: _158  and  _159
REMARK   67  A    between atoms: _159  and  _160
REMARK   68  A    between atoms: _163  and  _165
REMARK   69  A    between atoms: _165  and  _166
REMARK   70  A    between atoms: _165  and  _168
REMARK   71  A    between atoms: _168  and  _169
REMARK   72  A    between atoms: _174  and  _176
REMARK   73  A    between atoms: _176  and  _177
REMARK   74  A    between atoms: _176  and  _179
REMARK   75  A    between atoms: _179  and  _180
REMARK   76  A    between atoms: _183  and  _185
REMARK   77  A    between atoms: _185  and  _186
REMARK   78  A    between atoms: _185  and  _188
REMARK   79  A    between atoms: _188  and  _189
REMARK   80  A    between atoms: _195  and  _197
REMARK   81  A    between atoms: _197  and  _198
REMARK   82  A    between atoms: _197  and  _200
REMARK   83  A    between atoms: _200  and  _201
REMARK   84  A    between atoms: _206  and  _208
REMARK   85  A    between atoms: _208  and  _209
REMARK   86  A    between atoms: _208  and  _211
REMARK   87  A    between atoms: _211  and  _212
REMARK   88  A    between atoms: _217  and  _219
REMARK   89  A    between atoms: _219  and  _220
REMARK   90  A    between atoms: _219  and  _222
REMARK   91  A    between atoms: _222  and  _223
REMARK   92  A    between atoms: _225  and  _227
REMARK   93  A    between atoms: _227  and  _228
REMARK   94  A    between atoms: _227  and  _230
REMARK   95  A    between atoms: _230  and  _231
REMARK   96  A    between atoms: _237  and  _239
REMARK   97  A    between atoms: _239  and  _240
REMARK   98  A    between atoms: _243  and  _245
REMARK   99  A    between atoms: _245  and  _246
REMARK  100  A    between atoms: _245  and  _248
REMARK  101  A    between atoms: _248  and  _249
REMARK  102  A    between atoms: _249  and  _250
REMARK  103  A    between atoms: _250  and  _251
REMARK  104  A    between atoms: _260  and  _262
REMARK  105  A    between atoms: _262  and  _263
REMARK  106  A    between atoms: _262  and  _265
REMARK  107  A    between atoms: _265  and  _266
REMARK  108  A    between atoms: _269  and  _271
REMARK  109  A    between atoms: _271  and  _272
REMARK  110  A    between atoms: _271  and  _274
REMARK  111  A    between atoms: _274  and  _275
REMARK  112  A    between atoms: _278  and  _280
REMARK  113  A    between atoms: _280  and  _281
REMARK  114  A    between atoms: _280  and  _283
REMARK  115  A    between atoms: _283  and  _284
REMARK  116  A    between atoms: _287  and  _289
REMARK  117  A    between atoms: _289  and  _290
REMARK  118  A    between atoms: _289  and  _292
REMARK  119  A    between atoms: _295  and  _297
REMARK  120  A    between atoms: _297  and  _298
REMARK  121  A    between atoms: _297  and  _300
REMARK  122  A    between atoms: _303  and  _305
REMARK  123  A    between atoms: _305  and  _306
REMARK  124  A    between atoms: _308  and  _310
REMARK  125  A    between atoms: _310  and  _311
REMARK  126  A    between atoms: _310  and  _313
REMARK  127  A    between atoms: _313  and  _314
REMARK  128  A    between atoms: _318  and  ZN_601
REMARK  129  A    between atoms: _319  and  _321
REMARK  130  A    between atoms: _321  and  _322
REMARK  131  A    between atoms: _321  and  _324
REMARK  132  A    between atoms: _324  and  _325
REMARK  133  A    between atoms: _325  and  _326
REMARK  134  A    between atoms: _329  and  _331
REMARK  135  A    between atoms: _331  and  _332
REMARK  136  A    between atoms: _331  and  _334
REMARK  137  A    between atoms: _334  and  _335
REMARK  138  A    between atoms: _340  and  _341
REMARK  139  A    between atoms: _343  and  _345
REMARK  140  A    between atoms: _345  and  _346
REMARK  141  A    between atoms: _345  and  _348
REMARK  142  A    between atoms: _348  and  _349
REMARK  143  A    between atoms: _353  and  ZN_601
REMARK  144  A    between atoms: _354  and  _356
REMARK  145  A    between atoms: _356  and  _357
REMARK  146  A    between atoms: _356  and  _359
REMARK  147  A    between atoms: _359  and  _360
REMARK  148  A    between atoms: _365  and  _367
REMARK  149  A    between atoms: _367  and  _368
REMARK  150  A    between atoms: _367  and  _370
REMARK  151  A    between atoms: _370  and  _371
REMARK  152  A    between atoms: _381  and  _383
REMARK  153  A    between atoms: _383  and  _384
REMARK  154  A    between atoms: _383  and  _386
REMARK  155  A    between atoms: _386  and  _387
REMARK  156  A    between atoms: _390  and  _392
REMARK  157  A    between atoms: _392  and  _393
REMARK  158  A    between atoms: _392  and  _395
REMARK  159  A    between atoms: _395  and  _396
REMARK  160  A    between atoms: _396  and  _397
REMARK  161  A    between atoms: _397  and  _398
REMARK  162  A    between atoms: _398  and  _399
REMARK  163  A    between atoms: _403  and  _405
REMARK  164  A    between atoms: _405  and  _406
REMARK  165  A    between atoms: _405  and  _408
REMARK  166  A    between atoms: _408  and  _409
REMARK  167  A    between atoms: _409  and  _410
REMARK  168  A    between atoms: _410  and  _411
REMARK  169  A    between atoms: _411  and  ZN_601
REMARK  170  A    between atoms: _413  and  _415
REMARK  171  A    between atoms: _415  and  _416
REMARK  172  A    between atoms: _418  and  _420
REMARK  173  A    between atoms: _420  and  _421
REMARK  174  A    between atoms: _420  and  _423
REMARK  175  A    between atoms: _423  and  _424
REMARK  176  A    between atoms: _427  and  _429
REMARK  177  A    between atoms: _429  and  _430
REMARK  178  A    between atoms: _429  and  _432
REMARK  179  A    between atoms: _435  and  _437
REMARK  180  A    between atoms: _437  and  _438
REMARK  181  A    between atoms: _437  and  _440
REMARK  182  A    between atoms: _440  and  _441
REMARK  183  A    between atoms: _441  and  _442
REMARK  184  A    between atoms: _445  and  _447
REMARK  185  A    between atoms: _447  and  _448
REMARK  186  A    between atoms: _447  and  _450
REMARK  187  A    between atoms: _450  and  _451
REMARK  188  A    between atoms: _456  and  _458
REMARK  189  A    between atoms: _458  and  _459
REMARK  190  A    between atoms: _458  and  _461
REMARK  191  A    between atoms: _461  and  _462
REMARK  192  A    between atoms: _464  and  _466
REMARK  193  A    between atoms: _466  and  _467
REMARK  194  A    between atoms: _466  and  _469
REMARK  195  A    between atoms: _469  and  _470
REMARK  196  A    between atoms: _470  and  _471
REMARK  197  A    between atoms: _473  and  _475
REMARK  198  A    between atoms: _475  and  _476
REMARK  199  A    between atoms: _475  and  _478
REMARK  200  A    between atoms: _478  and  _479
REMARK  201  A    between atoms: _479  and  _480
REMARK  202  A    between atoms: _483  and  _485
REMARK  203  A    between atoms: _485  and  _486
REMARK  204  A    between atoms: _485  and  _488
REMARK  205  A    between atoms: _488  and  _489
REMARK  206  A    between atoms: _494  and  _496
REMARK  207  A    between atoms: _496  and  _497
REMARK  208  A    between atoms: _496  and  _499
REMARK  209  A    between atoms: _499  and  _500
REMARK  210  A    between atoms: _506  and  _508
REMARK  211  A    between atoms: _508  and  _509
REMARK  212  A    between atoms: _508  and  _511
REMARK  213  A    between atoms: _511  and  _512
REMARK  214  A    between atoms: _517  and  _518
REMARK  215  A    between atoms: _520  and  _522
REMARK  216  A    between atoms: _522  and  _523
REMARK  217  A    between atoms: _522  and  _525
REMARK  218  A    between atoms: _525  and  _526
REMARK  219  A    between atoms: _529  and  _531
REMARK  220  A    between atoms: _531  and  _532
REMARK  221  A    between atoms: _531  and  _534
REMARK  222  A    between atoms: _534  and  _535
REMARK  223  A    between atoms: _540  and  _541
REMARK  224  A    between atoms: _543  and  _545
REMARK  225  A    between atoms: _545  and  _546
REMARK  226  A    between atoms: _545  and  _548
REMARK  227  A    between atoms: _548  and  _549
REMARK  228  A    between atoms: _552  and  _554
REMARK  229  A    between atoms: _554  and  _555
REMARK  230  A    between atoms: _554  and  _557
REMARK  231  A    between atoms: _557  and  _558
REMARK  232  A    between atoms: _558  and  _559
REMARK  233  A    between atoms: _559  and  _560
REMARK  234  A    between atoms: _569  and  _571
REMARK  235  A    between atoms: _571  and  _572
REMARK  236  A    between atoms: _571  and  _574
REMARK  237  A    between atoms: _574  and  _575
REMARK  238  A    between atoms: _575  and  _576
REMARK  239  A    between atoms: _578  and  _580
REMARK  240  A    between atoms: _580  and  _581
REMARK  241  A    between atoms: _580  and  _583
REMARK  242  A    between atoms: _583  and  _584
REMARK  243  A    between atoms: _584  and  _585
REMARK  244  A    between atoms: _590  and  _592
REMARK  245  A    between atoms: _592  and  _593
REMARK  246  A    between atoms: _592  and  _595
REMARK  247  A    between atoms: _595  and  _596
REMARK                            x       y       z     vdW  Elec       q    Type
REMARK                         _______ _______ _______ _____ _____    ______ ____
ROOT
ATOM      1  CA  GLU A   3       9.284  15.700  17.853  0.00  0.00    +0.149 C 
ENDROOT
BRANCH   1   4
ATOM      2  C   CYS A   2       9.506  17.669  19.220  0.00  0.00    +0.242 C 
ATOM      3  O   CYS A   2       8.647  17.229  19.979  0.00  0.00    -0.273 OA
ATOM      4  N   GLU A   3       9.840  17.035  18.099  0.00  0.00    -0.297 N 
ATOM      5  H   GLU A   3      10.482  17.477  17.411  0.00  0.00    +0.150 HD
BRANCH   2   6
ATOM      6  CA  CYS A   2      10.198  18.991  19.549  0.00  0.00    +0.160 C 
BRANCH   6   9
ATOM      7  C   GLN A   1      12.599  19.009  19.929  0.00  0.00    +0.238 C 
ATOM      8  O   GLN A   1      12.461  18.677  21.110  0.00  0.00    -0.274 OA
ATOM      9  N   CYS A   2      11.576  19.124  19.091  0.00  0.00    -0.297 N 
ATOM     10  H   CYS A   2      11.761  19.313  18.085  0.00  0.00    +0.150 HD
BRANCH   7  11
ATOM     11  CA  GLN A   1      13.978  19.320  19.355  0.00  0.00    +0.145 C 
BRANCH  11  12
ATOM     12  N   GLN A   1      14.437  20.560  19.975  0.00  0.00    -0.238 NA
ATOM     13  H   GLN A   1      14.220  20.721  20.979  0.00  0.00    +0.142 HD
ENDBRANCH  11  12
BRANCH  11  14
ATOM     14  CB  GLN A   1      14.968  18.161  19.593  0.00  0.00    +0.036 C 
BRANCH  14  15
ATOM     15  CG  GLN A   1      14.484  16.779  19.095  0.00  0.00    +0.087 C 
BRANCH  15  16
ATOM     16  CD  GLN A   1      14.123  16.785  17.612  0.00  0.00    +0.219 C 
ATOM     17  NE2 GLN A   1      13.067  16.079  17.258  0.00  0.00    -0.329 N 
ATOM     18 HE21 GLN A   1      12.532  15.549  17.975  0.00  0.00    +0.145 HD
ATOM     19 HE22 GLN A   1      12.769  16.052  16.262  0.00  0.00    +0.145 HD
ATOM     20  OE1 GLN A   1      14.787  17.427  16.803  0.00  0.00    -0.275 OA
ENDBRANCH  15  16
ENDBRANCH  14  15
ENDBRANCH  11  14
ENDBRANCH   7  11
ENDBRANCH   6   9
BRANCH   6  21
ATOM     21  CB  CYS A   2       9.352  20.188  19.072  0.00  0.00    +0.098 C 
ATOM     22  SG  CYS A   2       9.936  21.738  19.773  0.00  0.00    -0.080 S 
ENDBRANCH   6  21
ENDBRANCH   2   6
ENDBRANCH   1   4
BRANCH   1  23
ATOM     23  C   GLU A   3       9.867  14.698  18.878  0.00  0.00    +0.241 C 
ATOM     24  N   ALA A   4       9.042  13.854  19.500  0.00  0.00    -0.297 N 
ATOM     25  H   ALA A   4       9.470  13.128  20.110  0.00  0.00    +0.150 HD
ATOM     26  O   GLU A   3      11.067  14.722  19.135  0.00  0.00    -0.273 OA
BRANCH  24  27
ATOM     27  CA  ALA A   4       7.580  13.868  19.392  0.00  0.00    +0.149 C 
ATOM     28  CB  ALA A   4       7.027  12.448  19.494  0.00  0.00    +0.031 C 
BRANCH  27  29
ATOM     29  C   ALA A   4       6.931  14.760  20.452  0.00  0.00    +0.241 C 
ATOM     30  N   THR A   5       7.490  14.755  21.667  0.00  0.00    -0.295 N 
ATOM     31  H   THR A   5       8.407  14.280  21.788  0.00  0.00    +0.150 HD
ATOM     32  O   ALA A   4       5.945  15.435  20.162  0.00  0.00    -0.273 OA
BRANCH  30  33
ATOM     33  CA  THR A   5       6.868  15.391  22.845  0.00  0.00    +0.176 C 
BRANCH  33  34
ATOM     34  C   THR A   5       7.732  16.481  23.493  0.00  0.00    +0.243 C 
ATOM     35  O   THR A   5       7.663  16.703  24.709  0.00  0.00    -0.273 OA
ATOM     36  N   GLY A   6       8.544  17.153  22.687  0.00  0.00    -0.296 N 
ATOM     37  H   GLY A   6       8.514  16.962  21.665  0.00  0.00    +0.150 HD
BRANCH  36  38
ATOM     38  CA  GLY A   6       9.478  18.153  23.194  0.00  0.00    +0.163 C 
BRANCH  38  39
ATOM     39  C   GLY A   6       8.961  19.580  23.308  0.00  0.00    +0.229 C 
ATOM     40  O   GLY A   6       9.552  20.385  24.025  0.00  0.00    -0.286 OA
ENDBRANCH  38  39
ENDBRANCH  36  38
ENDBRANCH  33  34
BRANCH  33  41
ATOM     41  CB  THR A   5       6.525  14.340  23.945  0.00  0.00    +0.137 C 
ATOM     42  CG2 THR A   5       5.490  13.347  23.456  0.00  0.00    +0.034 C 
BRANCH  41  43
ATOM     43  OG1 THR A   5       7.718  13.634  24.319  0.00  0.00    -0.382 OA
ATOM     44  HG1 THR A   5       8.384  14.277  24.671  0.00  0.00    +0.210 HD
ENDBRANCH  41  43
ENDBRANCH  33  41
ENDBRANCH  30  33
ENDBRANCH  27  29
ENDBRANCH  24  27
ENDBRANCH   1  23
BRANCH   1  45
ATOM     45  CB  GLU A   3       9.531  15.236  16.411  0.00  0.00    +0.041 C 
BRANCH  45  46
ATOM     46  CG  GLU A   3       8.778  13.945  16.079  0.00  0.00    +0.116 C 
BRANCH  46  47
ATOM     47  CD  GLU A   3       8.966  13.449  14.653  0.00  0.00    +0.365 C 
ATOM     48  OE2 GLU A   3       8.334  12.433  14.316  0.00  0.00    -0.246 OA
ATOM     49  OE1 GLU A   3       9.722  14.053  13.866  0.00  0.00    -0.246 OA
ENDBRANCH  46  47
ENDBRANCH  45  46
ENDBRANCH   1  45
TORSDOF 21
REMARK  Name = ../refined-set-2016/3ebi/3ebi_pocket.pdb
REMARK  247 active torsions:
REMARK  status: ('A' for Active; 'I' for Inactive)
REMARK    1  A    between atoms: _1  and  _3
REMARK    2  A    between atoms: _3  and  _4
REMARK    3  A    between atoms: _7  and  _9
REMARK    4  A    between atoms: _9  and  _10
REMARK    5  A    between atoms: _9  and  _12
REMARK    6  A    between atoms: _12  and  _13
REMARK    7  A    between atoms: _16  and  _18
REMARK    8  A    between atoms: _18  and  _19
REMARK    9  A    between atoms: _18  and  _21
REMARK   10  A    between atoms: _21  and  _22
REMARK   11  A    between atoms: _25  and  _27
REMARK   12  A    between atoms: _27  and  _28
REMARK   13  A    between atoms: _30  and  _32
REMARK   14  A    between atoms: _32  and  _33
REMARK   15  A    between atoms: _32  and  _35
REMARK   16  A    between atoms: _35  and  _36
REMARK   17  A    between atoms: _36  and  _37
REMARK   18  A    between atoms: _42  and  _44
REMARK   19  A    between atoms: _44  and  _45
REMARK   20  A    between atoms: _44  and  _47
REMARK   21  A    between atoms: _49  and  _51
REMARK   22  A    between atoms: _51  and  _52
REMARK   23  A    between atoms: _51  and  _54
REMARK   24  A    between atoms: _54  and  _55
REMARK   25  A    between atoms: _55  and  _56
REMARK   26  A    between atoms: _59  and  _61
REMARK   27  A    between atoms: _61  and  _62
REMARK   28  A    between atoms: _65  and  _67
REMARK   29  A    between atoms: _67  and  _68
REMARK   30  A    between atoms: _67  and  _70
REMARK   31  A    between atoms: _70  and  _71
REMARK   32  A    between atoms: _74  and  _76
REMARK   33  A    between atoms: _76  and  _77
REMARK   34  A    between atoms: _79  and  _81
REMARK   35  A    between atoms: _81  and  _82
REMARK   36  A    between atoms: _81  and  _84
REMARK   37  A    between atoms: _84  and  _85
REMARK   38  A    between atoms: _90  and  _91
REMARK   39  A    between atoms: _93  and  _95
REMARK   40  A    between atoms: _95  and  _96
REMARK   41  A    between atoms: _95  and  _98
REMARK   42  A    between atoms: _98  and  _99
REMARK   43  A    between atoms: _102  and  _104
REMARK   44  A    between atoms: _104  and  _105
REMARK   45  A    between atoms: _104  and  _107
REMARK   46  A    between atoms: _107  and  _108
REMARK   47  A    between atoms: _114  and  _116
REMARK   48  A    between atoms: _116  and  _117
REMARK   49  A    between atoms: _116  and  _119
REMARK   50  A    between atoms: _119  and  _120
REMARK   51  A    between atoms: _125  and  _127
REMARK   52  A    between atoms: _127  and  _128
REMARK   53  A    between atoms: _127  and  _130
REMARK   54  A    between atoms: _133  and  _135
REMARK   55  A    between atoms: _135  and  _136
REMARK   56  A    between atoms: _138  and  _140
REMARK   57  A    between atoms: _140  and  _141
REMARK   58  A    between atoms: _144  and  _146
REMARK   59  A    between atoms: _146  and  _147
REMARK   60  A    between atoms: _146  and  _149
REMARK   61  A    between atoms: _149  and  _150
REMARK   62  A    between atoms: _150  and  _151
REMARK   63  A    between atoms: _153  and  _155
REMARK   64  A    between atoms: _155  and  _156
REMARK   65  A    between atoms: _155  and  _158
REMARK   66  A    between atoms: _158  and  _159
REMARK   67  A    between atoms: _159  and  _160
REMARK   68  A    between atoms: _163  and  _165
REMARK   69  A    between atoms: _165  and  _166
REMARK   70  A    between atoms: _165  and  _168
REMARK   71  A    between atoms: _168  and  _169
REMARK   72  A    between atoms: _174  and  _176
REMARK   73  A    between atoms: _176  and  _177
REMARK   74  A    between atoms: _176  and  _179
REMARK   75  A    between atoms: _179  and  _180
REMARK   76  A    between atoms: _183  and  _185
REMARK   77  A    between atoms: _185  and  _186
REMARK   78  A    between atoms: _185  and  _188
REMARK   79  A    between atoms: _188  and  _189
REMARK   80  A    between atoms: _195  and  _197
REMARK   81  A    between atoms: _197  and  _198
REMARK   82  A    between atoms: _197  and  _200
REMARK   83  A    between atoms: _200  and  _201
REMARK   84  A    between atoms: _206  and  _208
REMARK   85  A    between atoms: _208  and  _209
REMARK   86  A    between atoms: _208  and  _211
REMARK   87  A    between atoms: _211  and  _212
REMARK   88  A    between atoms: _217  and  _219
REMARK   89  A    between atoms: _219  and  _220
REMARK   90  A    between atoms: _219  and  _222
REMARK   91  A    between atoms: _222  and  _223
REMARK   92  A    between atoms: _225  and  _227
REMARK   93  A    between atoms: _227  and  _228
REMARK   94  A    between atoms: _227  and  _230
REMARK   95  A    between atoms: _230  and  _231
REMARK   96  A    between atoms: _237  and  _239
REMARK   97  A    between atoms: _239  and  _240
REMARK   98  A    between atoms: _243  and  _245
REMARK   99  A    between atoms: _245  and  _246
REMARK  100  A    between atoms: _245  and  _248
REMARK  101  A    between atoms: _248  and  _249
REMARK  102  A    between atoms: _249  and  _250
REMARK  103  A    between atoms: _250  and  _251
REMARK  104  A    between atoms: _260  and  _262
REMARK  105  A    between atoms: _262  and  _263
REMARK  106  A    between atoms: _262  and  _265
REMARK  107  A    between atoms: _265  and  _266
REMARK  108  A    between atoms: _269  and  _271
REMARK  109  A    between atoms: _271  and  _272
REMARK  110  A    between atoms: _271  and  _274
REMARK  111  A    between atoms: _274  and  _275
REMARK  112  A    between atoms: _278  and  _280
REMARK  113  A    between atoms: _280  and  _281
REMARK  114  A    between atoms: _280  and  _283
REMARK  115  A    between atoms: _283  and  _284
REMARK  116  A    between atoms: _287  and  _289
REMARK  117  A    between atoms: _289  and  _290
REMARK  118  A    between atoms: _289  and  _292
REMARK  119  A    between atoms: _295  and  _297
REMARK  120  A    between atoms: _297  and  _298
REMARK  121  A    between atoms: _297  and  _300
REMARK  122  A    between atoms: _303  and  _305
REMARK  123  A    between atoms: _305  and  _306
REMARK  124  A    between atoms: _308  and  _310
REMARK  125  A    between atoms: _310  and  _311
REMARK  126  A    between atoms: _310  and  _313
REMARK  127  A    between atoms: _313  and  _314
REMARK  128  A    between atoms: _318  and  ZN_601
REMARK  129  A    between atoms: _319  and  _321
REMARK  130  A    between atoms: _321  and  _322
REMARK  131  A    between atoms: _321  and  _324
REMARK  132  A    between atoms: _324  and  _325
REMARK  133  A    between atoms: _325  and  _326
REMARK  134  A    between atoms: _329  and  _331
REMARK  135  A    between atoms: _331  and  _332
REMARK  136  A    between atoms: _331  and  _334
REMARK  137  A    between atoms: _334  and  _335
REMARK  138  A    between atoms: _340  and  _341
REMARK  139  A    between atoms: _343  and  _345
REMARK  140  A    between atoms: _345  and  _346
REMARK  141  A    between atoms: _345  and  _348
REMARK  142  A    between atoms: _348  and  _349
REMARK  143  A    between atoms: _353  and  ZN_601
REMARK  144  A    between atoms: _354  and  _356
REMARK  145  A    between atoms: _356  and  _357
REMARK  146  A    between atoms: _356  and  _359
REMARK  147  A    between atoms: _359  and  _360
REMARK  148  A    between atoms: _365  and  _367
REMARK  149  A    between atoms: _367  and  _368
REMARK  150  A    between atoms: _367  and  _370
REMARK  151  A    between atoms: _370  and  _371
REMARK  152  A    between atoms: _381  and  _383
REMARK  153  A    between atoms: _383  and  _384
REMARK  154  A    between atoms: _383  and  _386
REMARK  155  A    between atoms: _386  and  _387
REMARK  156  A    between atoms: _390  and  _392
REMARK  157  A    between atoms: _392  and  _393
REMARK  158  A    between atoms: _392  and  _395
REMARK  159  A    between atoms: _395  and  _396
REMARK  160  A    between atoms: _396  and  _397
REMARK  161  A    between atoms: _397  and  _398
REMARK  162  A    between atoms: _398  and  _399
REMARK  163  A    between atoms: _403  and  _405
REMARK  164  A    between atoms: _405  and  _406
REMARK  165  A    between atoms: _405  and  _408
REMARK  166  A    between atoms: _408  and  _409
REMARK  167  A    between atoms: _409  and  _410
REMARK  168  A    between atoms: _410  and  _411
REMARK  169  A    between atoms: _411  and  ZN_601
REMARK  170  A    between atoms: _413  and  _415
REMARK  171  A    between atoms: _415  and  _416
REMARK  172  A    between atoms: _418  and  _420
REMARK  173  A    between atoms: _420  and  _421
REMARK  174  A    between atoms: _420  and  _423
REMARK  175  A    between atoms: _423  and  _424
REMARK  176  A    between atoms: _427  and  _429
REMARK  177  A    between atoms: _429  and  _430
REMARK  178  A    between atoms: _429  and  _432
REMARK  179  A    between atoms: _435  and  _437
REMARK  180  A    between atoms: _437  and  _438
REMARK  181  A    between atoms: _437  and  _440
REMARK  182  A    between atoms: _440  and  _441
REMARK  183  A    between atoms: _441  and  _442
REMARK  184  A    between atoms: _445  and  _447
REMARK  185  A    between atoms: _447  and  _448
REMARK  186  A    between atoms: _447  and  _450
REMARK  187  A    between atoms: _450  and  _451
REMARK  188  A    between atoms: _456  and  _458
REMARK  189  A    between atoms: _458  and  _459
REMARK  190  A    between atoms: _458  and  _461
REMARK  191  A    between atoms: _461  and  _462
REMARK  192  A    between atoms: _464  and  _466
REMARK  193  A    between atoms: _466  and  _467
REMARK  194  A    between atoms: _466  and  _469
REMARK  195  A    between atoms: _469  and  _470
REMARK  196  A    between atoms: _470  and  _471
REMARK  197  A    between atoms: _473  and  _475
REMARK  198  A    between atoms: _475  and  _476
REMARK  199  A    between atoms: _475  and  _478
REMARK  200  A    between atoms: _478  and  _479
REMARK  201  A    between atoms: _479  and  _480
REMARK  202  A    between atoms: _483  and  _485
REMARK  203  A    between atoms: _485  and  _486
REMARK  204  A    between atoms: _485  and  _488
REMARK  205  A    between atoms: _488  and  _489
REMARK  206  A    between atoms: _494  and  _496
REMARK  207  A    between atoms: _496  and  _497
REMARK  208  A    between atoms: _496  and  _499
REMARK  209  A    between atoms: _499  and  _500
REMARK  210  A    between atoms: _506  and  _508
REMARK  211  A    between atoms: _508  and  _509
REMARK  212  A    between atoms: _508  and  _511
REMARK  213  A    between atoms: _511  and  _512
REMARK  214  A    between atoms: _517  and  _518
REMARK  215  A    between atoms: _520  and  _522
REMARK  216  A    between atoms: _522  and  _523
REMARK  217  A    between atoms: _522  and  _525
REMARK  218  A    between atoms: _525  and  _526
REMARK  219  A    between atoms: _529  and  _531
REMARK  220  A    between atoms: _531  and  _532
REMARK  221  A    between atoms: _531  and  _534
REMARK  222  A    between atoms: _534  and  _535
REMARK  223  A    between atoms: _540  and  _541
REMARK  224  A    between atoms: _543  and  _545
REMARK  225  A    between atoms: _545  and  _546
REMARK  226  A    between atoms: _545  and  _548
REMARK  227  A    between atoms: _548  and  _549
REMARK  228  A    between atoms: _552  and  _554
REMARK  229  A    between atoms: _554  and  _555
REMARK  230  A    between atoms: _554  and  _557
REMARK  231  A    between atoms: _557  and  _558
REMARK  232  A    between atoms: _558  and  _559
REMARK  233  A    between atoms: _559  and  _560
REMARK  234  A    between atoms: _569  and  _571
REMARK  235  A    between atoms: _571  and  _572
REMARK  236  A    between atoms: _571  and  _574
REMARK  237  A    between atoms: _574  and  _575
REMARK  238  A    between atoms: _575  and  _576
REMARK  239  A    between atoms: _578  and  _580
REMARK  240  A    between atoms: _580  and  _581
REMARK  241  A    between atoms: _580  and  _583
REMARK  242  A    between atoms: _583  and  _584
REMARK  243  A    between atoms: _584  and  _585
REMARK  244  A    between atoms: _590  and  _592
REMARK  245  A    between atoms: _592  and  _593
REMARK  246  A    between atoms: _592  and  _595
REMARK  247  A    between atoms: _595  and  _596
REMARK                            x       y       z     vdW  Elec       q    Type
REMARK                         _______ _______ _______ _____ _____    ______ ____
ROOT
ATOM      1  CA  TYR A   1       6.520  19.136  16.672  0.00  0.00    +0.149 C 
ENDROOT
BRANCH   1   2
ATOM      2  C   TYR A   1       7.434  19.650  15.549  0.00  0.00    +0.239 C 
ATOM      3  O   TYR A   1       8.624  19.352  15.533  0.00  0.00    -0.274 OA
ATOM      4  N   LEU A   2       6.871  20.452  14.644  0.00  0.00    -0.298 N 
ATOM      5  H   LEU A   2       5.856  20.660  14.731  0.00  0.00    +0.150 HD
BRANCH   4   6
ATOM      6  CA  LEU A   2       7.614  21.055  13.531  0.00  0.00    +0.137 C 
BRANCH   6   7
ATOM      7  C   LEU A   2       8.124  22.475  13.808  0.00  0.00    +0.227 C 
ATOM      8  O   LEU A   2       8.761  23.081  12.945  0.00  0.00    -0.286 OA
ENDBRANCH   6   7
BRANCH   6   9
ATOM      9  CB  LEU A   2       6.768  21.044  12.253  0.00  0.00    +0.028 C 
BRANCH   9  10
ATOM     10  CG  LEU A   2       6.495  19.683  11.601  0.00  0.00    +0.002 C 
ATOM     11  CD2 LEU A   2       7.793  18.919  11.286  0.00  0.00    +0.000 C 
ATOM     12  CD1 LEU A   2       5.667  19.880  10.328  0.00  0.00    +0.000 C 
ENDBRANCH   9  10
ENDBRANCH   6   9
ENDBRANCH   4   6
ENDBRANCH   1   2
BRANCH   1  13
ATOM     13  N   TYR A   1       5.249  19.884  16.760  0.00  0.00    -0.238 NA
ATOM     14  H   TYR A   1       4.355  19.414  16.514  0.00  0.00    +0.142 HD
ENDBRANCH   1  13
BRANCH   1  15
ATOM     15  CB  TYR A   1       6.300  17.612  16.586  0.00  0.00    +0.053 C 
BRANCH  15  16
ATOM     16  CG  TYR A   1       5.901  17.098  15.213  0.00  0.00    -0.020 A 
ATOM     17  CD2 TYR A   1       4.559  17.018  14.842  0.00  0.00    -0.001 A 
ATOM     18  CE2 TYR A   1       4.181  16.535  13.592  0.00  0.00    +0.036 A 
ATOM     19  CZ  TYR A   1       5.156  16.120  12.697  0.00  0.00    +0.134 A 
ATOM     20  CE1 TYR A   1       6.504  16.177  13.044  0.00  0.00    +0.036 A 
ATOM     21  CD1 TYR A   1       6.869  16.673  14.294  0.00  0.00    -0.001 A 
BRANCH  19  22
ATOM     22  OH  TYR A   1       4.786  15.649  11.459  0.00  0.00    -0.506 OA
ATOM     23  HH  TYR A   1       5.192  16.217  10.757  0.00  0.00    +0.292 HD
ENDBRANCH  19  22
ENDBRANCH  15  16
ENDBRANCH   1  15
TORSDOF 9
REMARK  Name = ../refined-set-2016/3ebi/3ebi_pocket.pdb
REMARK  247 active torsions:
REMARK  status: ('A' for Active; 'I' for Inactive)
REMARK    1  A    between atoms: _1  and  _3
REMARK    2  A    between atoms: _3  and  _4
REMARK    3  A    between atoms: _7  and  _9
REMARK    4  A    between atoms: _9  and  _10
REMARK    5  A    between atoms: _9  and  _12
REMARK    6  A    between atoms: _12  and  _13
REMARK    7  A    between atoms: _16  and  _18
REMARK    8  A    between atoms: _18  and  _19
REMARK    9  A    between atoms: _18  and  _21
REMARK   10  A    between atoms: _21  and  _22
REMARK   11  A    between atoms: _25  and  _27
REMARK   12  A    between atoms: _27  and  _28
REMARK   13  A    between atoms: _30  and  _32
REMARK   14  A    between atoms: _32  and  _33
REMARK   15  A    between atoms: _32  and  _35
REMARK   16  A    between atoms: _35  and  _36
REMARK   17  A    between atoms: _36  and  _37
REMARK   18  A    between atoms: _42  and  _44
REMARK   19  A    between atoms: _44  and  _45
REMARK   20  A    between atoms: _44  and  _47
REMARK   21  A    between atoms: _49  and  _51
REMARK   22  A    between atoms: _51  and  _52
REMARK   23  A    between atoms: _51  and  _54
REMARK   24  A    between atoms: _54  and  _55
REMARK   25  A    between atoms: _55  and  _56
REMARK   26  A    between atoms: _59  and  _61
REMARK   27  A    between atoms: _61  and  _62
REMARK   28  A    between atoms: _65  and  _67
REMARK   29  A    between atoms: _67  and  _68
REMARK   30  A    between atoms: _67  and  _70
REMARK   31  A    between atoms: _70  and  _71
REMARK   32  A    between atoms: _74  and  _76
REMARK   33  A    between atoms: _76  and  _77
REMARK   34  A    between atoms: _79  and  _81
REMARK   35  A    between atoms: _81  and  _82
REMARK   36  A    between atoms: _81  and  _84
REMARK   37  A    between atoms: _84  and  _85
REMARK   38  A    between atoms: _90  and  _91
REMARK   39  A    between atoms: _93  and  _95
REMARK   40  A    between atoms: _95  and  _96
REMARK   41  A    between atoms: _95  and  _98
REMARK   42  A    between atoms: _98  and  _99
REMARK   43  A    between atoms: _102  and  _104
REMARK   44  A    between atoms: _104  and  _105
REMARK   45  A    between atoms: _104  and  _107
REMARK   46  A    between atoms: _107  and  _108
REMARK   47  A    between atoms: _114  and  _116
REMARK   48  A    between atoms: _116  and  _117
REMARK   49  A    between atoms: _116  and  _119
REMARK   50  A    between atoms: _119  and  _120
REMARK   51  A    between atoms: _125  and  _127
REMARK   52  A    between atoms: _127  and  _128
REMARK   53  A    between atoms: _127  and  _130
REMARK   54  A    between atoms: _133  and  _135
REMARK   55  A    between atoms: _135  and  _136
REMARK   56  A    between atoms: _138  and  _140
REMARK   57  A    between atoms: _140  and  _141
REMARK   58  A    between atoms: _144  and  _146
REMARK   59  A    between atoms: _146  and  _147
REMARK   60  A    between atoms: _146  and  _149
REMARK   61  A    between atoms: _149  and  _150
REMARK   62  A    between atoms: _150  and  _151
REMARK   63  A    between atoms: _153  and  _155
REMARK   64  A    between atoms: _155  and  _156
REMARK   65  A    between atoms: _155  and  _158
REMARK   66  A    between atoms: _158  and  _159
REMARK   67  A    between atoms: _159  and  _160
REMARK   68  A    between atoms: _163  and  _165
REMARK   69  A    between atoms: _165  and  _166
REMARK   70  A    between atoms: _165  and  _168
REMARK   71  A    between atoms: _168  and  _169
REMARK   72  A    between atoms: _174  and  _176
REMARK   73  A    between atoms: _176  and  _177
REMARK   74  A    between atoms: _176  and  _179
REMARK   75  A    between atoms: _179  and  _180
REMARK   76  A    between atoms: _183  and  _185
REMARK   77  A    between atoms: _185  and  _186
REMARK   78  A    between atoms: _185  and  _188
REMARK   79  A    between atoms: _188  and  _189
REMARK   80  A    between atoms: _195  and  _197
REMARK   81  A    between atoms: _197  and  _198
REMARK   82  A    between atoms: _197  and  _200
REMARK   83  A    between atoms: _200  and  _201
REMARK   84  A    between atoms: _206  and  _208
REMARK   85  A    between atoms: _208  and  _209
REMARK   86  A    between atoms: _208  and  _211
REMARK   87  A    between atoms: _211  and  _212
REMARK   88  A    between atoms: _217  and  _219
REMARK   89  A    between atoms: _219  and  _220
REMARK   90  A    between atoms: _219  and  _222
REMARK   91  A    between atoms: _222  and  _223
REMARK   92  A    between atoms: _225  and  _227
REMARK   93  A    between atoms: _227  and  _228
REMARK   94  A    between atoms: _227  and  _230
REMARK   95  A    between atoms: _230  and  _231
REMARK   96  A    between atoms: _237  and  _239
REMARK   97  A    between atoms: _239  and  _240
REMARK   98  A    between atoms: _243  and  _245
REMARK   99  A    between atoms: _245  and  _246
REMARK  100  A    between atoms: _245  and  _248
REMARK  101  A    between atoms: _248  and  _249
REMARK  102  A    between atoms: _249  and  _250
REMARK  103  A    between atoms: _250  and  _251
REMARK  104  A    between atoms: _260  and  _262
REMARK  105  A    between atoms: _262  and  _263
REMARK  106  A    between atoms: _262  and  _265
REMARK  107  A    between atoms: _265  and  _266
REMARK  108  A    between atoms: _269  and  _271
REMARK  109  A    between atoms: _271  and  _272
REMARK  110  A    between atoms: _271  and  _274
REMARK  111  A    between atoms: _274  and  _275
REMARK  112  A    between atoms: _278  and  _280
REMARK  113  A    between atoms: _280  and  _281
REMARK  114  A    between atoms: _280  and  _283
REMARK  115  A    between atoms: _283  and  _284
REMARK  116  A    between atoms: _287  and  _289
REMARK  117  A    between atoms: _289  and  _290
REMARK  118  A    between atoms: _289  and  _292
REMARK  119  A    between atoms: _295  and  _297
REMARK  120  A    between atoms: _297  and  _298
REMARK  121  A    between atoms: _297  and  _300
REMARK  122  A    between atoms: _303  and  _305
REMARK  123  A    between atoms: _305  and  _306
REMARK  124  A    between atoms: _308  and  _310
REMARK  125  A    between atoms: _310  and  _311
REMARK  126  A    between atoms: _310  and  _313
REMARK  127  A    between atoms: _313  and  _314
REMARK  128  A    between atoms: _318  and  ZN_601
REMARK  129  A    between atoms: _319  and  _321
REMARK  130  A    between atoms: _321  and  _322
REMARK  131  A    between atoms: _321  and  _324
REMARK  132  A    between atoms: _324  and  _325
REMARK  133  A    between atoms: _325  and  _326
REMARK  134  A    between atoms: _329  and  _331
REMARK  135  A    between atoms: _331  and  _332
REMARK  136  A    between atoms: _331  and  _334
REMARK  137  A    between atoms: _334  and  _335
REMARK  138  A    between atoms: _340  and  _341
REMARK  139  A    between atoms: _343  and  _345
REMARK  140  A    between atoms: _345  and  _346
REMARK  141  A    between atoms: _345  and  _348
REMARK  142  A    between atoms: _348  and  _349
REMARK  143  A    between atoms: _353  and  ZN_601
REMARK  144  A    between atoms: _354  and  _356
REMARK  145  A    between atoms: _356  and  _357
REMARK  146  A    between atoms: _356  and  _359
REMARK  147  A    between atoms: _359  and  _360
REMARK  148  A    between atoms: _365  and  _367
REMARK  149  A    between atoms: _367  and  _368
REMARK  150  A    between atoms: _367  and  _370
REMARK  151  A    between atoms: _370  and  _371
REMARK  152  A    between atoms: _381  and  _383
REMARK  153  A    between atoms: _383  and  _384
REMARK  154  A    between atoms: _383  and  _386
REMARK  155  A    between atoms: _386  and  _387
REMARK  156  A    between atoms: _390  and  _392
REMARK  157  A    between atoms: _392  and  _393
REMARK  158  A    between atoms: _392  and  _395
REMARK  159  A    between atoms: _395  and  _396
REMARK  160  A    between atoms: _396  and  _397
REMARK  161  A    between atoms: _397  and  _398
REMARK  162  A    between atoms: _398  and  _399
REMARK  163  A    between atoms: _403  and  _405
REMARK  164  A    between atoms: _405  and  _406
REMARK  165  A    between atoms: _405  and  _408
REMARK  166  A    between atoms: _408  and  _409
REMARK  167  A    between atoms: _409  and  _410
REMARK  168  A    between atoms: _410  and  _411
REMARK  169  A    between atoms: _411  and  ZN_601
REMARK  170  A    between atoms: _413  and  _415
REMARK  171  A    between atoms: _415  and  _416
REMARK  172  A    between atoms: _418  and  _420
REMARK  173  A    between atoms: _420  and  _421
REMARK  174  A    between atoms: _420  and  _423
REMARK  175  A    between atoms: _423  and  _424
REMARK  176  A    between atoms: _427  and  _429
REMARK  177  A    between atoms: _429  and  _430
REMARK  178  A    between atoms: _429  and  _432
REMARK  179  A    between atoms: _435  and  _437
REMARK  180  A    between atoms: _437  and  _438
REMARK  181  A    between atoms: _437  and  _440
REMARK  182  A    between atoms: _440  and  _441
REMARK  183  A    between atoms: _441  and  _442
REMARK  184  A    between atoms: _445  and  _447
REMARK  185  A    between atoms: _447  and  _448
REMARK  186  A    between atoms: _447  and  _450
REMARK  187  A    between atoms: _450  and  _451
REMARK  188  A    between atoms: _456  and  _458
REMARK  189  A    between atoms: _458  and  _459
REMARK  190  A    between atoms: _458  and  _461
REMARK  191  A    between atoms: _461  and  _462
REMARK  192  A    between atoms: _464  and  _466
REMARK  193  A    between atoms: _466  and  _467
REMARK  194  A    between atoms: _466  and  _469
REMARK  195  A    between atoms: _469  and  _470
REMARK  196  A    between atoms: _470  and  _471
REMARK  197  A    between atoms: _473  and  _475
REMARK  198  A    between atoms: _475  and  _476
REMARK  199  A    between atoms: _475  and  _478
REMARK  200  A    between atoms: _478  and  _479
REMARK  201  A    between atoms: _479  and  _480
REMARK  202  A    between atoms: _483  and  _485
REMARK  203  A    between atoms: _485  and  _486
REMARK  204  A    between atoms: _485  and  _488
REMARK  205  A    between atoms: _488  and  _489
REMARK  206  A    between atoms: _494  and  _496
REMARK  207  A    between atoms: _496  and  _497
REMARK  208  A    between atoms: _496  and  _499
REMARK  209  A    between atoms: _499  and  _500
REMARK  210  A    between atoms: _506  and  _508
REMARK  211  A    between atoms: _508  and  _509
REMARK  212  A    between atoms: _508  and  _511
REMARK  213  A    between atoms: _511  and  _512
REMARK  214  A    between atoms: _517  and  _518
REMARK  215  A    between atoms: _520  and  _522
REMARK  216  A    between atoms: _522  and  _523
REMARK  217  A    between atoms: _522  and  _525
REMARK  218  A    between atoms: _525  and  _526
REMARK  219  A    between atoms: _529  and  _531
REMARK  220  A    between atoms: _531  and  _532
REMARK  221  A    between atoms: _531  and  _534
REMARK  222  A    between atoms: _534  and  _535
REMARK  223  A    between atoms: _540  and  _541
REMARK  224  A    between atoms: _543  and  _545
REMARK  225  A    between atoms: _545  and  _546
REMARK  226  A    between atoms: _545  and  _548
REMARK  227  A    between atoms: _548  and  _549
REMARK  228  A    between atoms: _552  and  _554
REMARK  229  A    between atoms: _554  and  _555
REMARK  230  A    between atoms: _554  and  _557
REMARK  231  A    between atoms: _557  and  _558
REMARK  232  A    between atoms: _558  and  _559
REMARK  233  A    between atoms: _559  and  _560
REMARK  234  A    between atoms: _569  and  _571
REMARK  235  A    between atoms: _571  and  _572
REMARK  236  A    between atoms: _571  and  _574
REMARK  237  A    between atoms: _574  and  _575
REMARK  238  A    between atoms: _575  and  _576
REMARK  239  A    between atoms: _578  and  _580
REMARK  240  A    between atoms: _580  and  _581
REMARK  241  A    between atoms: _580  and  _583
REMARK  242  A    between atoms: _583  and  _584
REMARK  243  A    between atoms: _584  and  _585
REMARK  244  A    between atoms: _590  and  _592
REMARK  245  A    between atoms: _592  and  _593
REMARK  246  A    between atoms: _592  and  _595
REMARK  247  A    between atoms: _595  and  _596
REMARK                            x       y       z     vdW  Elec       q    Type
REMARK                         _______ _______ _______ _____ _____    ______ ____
ROOT
ATOM      1  C   GLY A   4      19.867  13.141  12.198  0.00  0.00    +0.243 C 
ATOM      2  N   ALA A   5      18.580  13.484  12.205  0.00  0.00    -0.297 N 
ATOM      3  H   ALA A   5      17.868  12.774  12.471  0.00  0.00    +0.150 HD
ATOM      4  O   GLY A   4      20.761  13.933  11.915  0.00  0.00    -0.273 OA
ENDROOT
BRANCH   2   5
ATOM      5  CA  ALA A   5      18.140  14.842  11.846  0.00  0.00    +0.149 C 
ATOM      6  CB  ALA A   5      18.457  15.155  10.372  0.00  0.00    +0.031 C 
BRANCH   5   7
ATOM      7  C   ALA A   5      16.661  15.063  12.149  0.00  0.00    +0.241 C 
ATOM      8  O   ALA A   5      15.984  14.166  12.677  0.00  0.00    -0.273 OA
ATOM      9  N   MET A   6      16.170  16.265  11.854  0.00  0.00    -0.297 N 
ATOM     10  H   MET A   6      16.791  16.968  11.405  0.00  0.00    +0.150 HD
BRANCH   9  11
ATOM     11  CA  MET A   6      14.783  16.625  12.143  0.00  0.00    +0.149 C 
BRANCH  11  12
ATOM     12  C   MET A   6      14.238  17.592  11.102  0.00  0.00    +0.241 C 
ATOM     13  O   MET A   6      14.849  18.626  10.838  0.00  0.00    -0.273 OA
ATOM     14  N   GLU A   7      13.075  17.266  10.541  0.00  0.00    -0.297 N 
ATOM     15  H   GLU A   7      12.550  16.452  10.919  0.00  0.00    +0.150 HD
BRANCH  14  16
ATOM     16  CA  GLU A   7      12.503  18.011   9.409  0.00  0.00    +0.149 C 
BRANCH  16  17
ATOM     17  C   GLU A   7      11.690  19.258   9.775  0.00  0.00    +0.241 C 
ATOM     18  N   ASN A   8      12.100  20.005  10.803  0.00  0.00    -0.298 N 
ATOM     19  H   ASN A   8      12.937  19.720  11.350  0.00  0.00    +0.150 HD
ATOM     20  O   GLU A   7      10.702  19.549   9.106  0.00  0.00    -0.273 OA
BRANCH  18  21
ATOM     21  CA  ASN A   8      11.367  21.237  11.165  0.00  0.00    +0.146 C 
BRANCH  21  22
ATOM     22  C   ASN A   8      11.144  22.119   9.931  0.00  0.00    +0.227 C 
ATOM     23  O   ASN A   8      12.073  22.367   9.166  0.00  0.00    -0.286 OA
ENDBRANCH  21  22
BRANCH  21  24
ATOM     24  CB  ASN A   8      12.091  22.040  12.243  0.00  0.00    +0.112 C 
BRANCH  24  25
ATOM     25  CG  ASN A   8      12.682  21.181  13.319  0.00  0.00    +0.222 C 
ATOM     26  OD1 ASN A   8      11.968  20.652  14.179  0.00  0.00    -0.275 OA
ATOM     27  ND2 ASN A   8      14.003  21.052  13.303  0.00  0.00    -0.329 N 
ATOM     28 HD21 ASN A   8      14.479  20.487  14.035  0.00  0.00    +0.145 HD
ATOM     29 HD22 ASN A   8      14.562  21.516  12.559  0.00  0.00    +0.145 HD
ENDBRANCH  24  25
ENDBRANCH  21  24
ENDBRANCH  18  21
ENDBRANCH  16  17
BRANCH  16  30
ATOM     30  CB  GLU A   7      11.635  17.084   8.552  0.00  0.00    +0.041 C 
BRANCH  30  31
ATOM     31  CG  GLU A   7      10.310  16.624   9.221  0.00  0.00    +0.116 C 
BRANCH  31  32
ATOM     32  CD  GLU A   7      10.415  15.406  10.125  0.00  0.00    +0.365 C 
ATOM     33  OE2 GLU A   7      11.520  15.034  10.568  0.00  0.00    -0.246 OA
ATOM     34  OE1 GLU A   7       9.356  14.791  10.395  0.00  0.00    -0.246 OA
ENDBRANCH  31  32
ENDBRANCH  30  31
ENDBRANCH  16  30
ENDBRANCH  14  16
ENDBRANCH  11  12
BRANCH  11  35
ATOM     35  CB  MET A   6      14.654  17.235  13.546  0.00  0.00    +0.041 C 
BRANCH  35  36
ATOM     36  CG  MET A   6      13.222  17.647  13.901  0.00  0.00    +0.060 C 
BRANCH  36  37
ATOM     37  SD  MET A   6      12.018  16.280  13.885  0.00  0.00    -0.139 S 
ATOM     38  CE  MET A   6      10.573  17.163  13.271  0.00  0.00    +0.069 C 
ENDBRANCH  36  37
ENDBRANCH  35  36
ENDBRANCH  11  35
ENDBRANCH   9  11
ENDBRANCH   5   7
ENDBRANCH   2   5
BRANCH   1  39
ATOM     39  CA  GLY A   4      20.199  11.690  12.531  0.00  0.00    +0.176 C 
BRANCH  39  42
ATOM     40  C   VAL A   3      19.847  11.493  14.946  0.00  0.00    +0.241 C 
ATOM     41  O   VAL A   3      20.799  12.233  15.212  0.00  0.00    -0.273 OA
ATOM     42  N   GLY A   4      19.502  11.166  13.701  0.00  0.00    -0.295 N 
ATOM     43  H   GLY A   4      18.706  10.513  13.558  0.00  0.00    +0.150 HD
BRANCH  40  44
ATOM     44  CA  VAL A   3      19.003  10.898  16.078  0.00  0.00    +0.149 C 
BRANCH  44  47
ATOM     45  C   ASN A   2      19.499  11.162  18.458  0.00  0.00    +0.241 C 
ATOM     46  O   ASN A   2      19.756   9.968  18.594  0.00  0.00    -0.273 OA
ATOM     47  N   VAL A   3      19.127  11.699  17.298  0.00  0.00    -0.297 N 
ATOM     48  H   VAL A   3      18.918  12.717  17.257  0.00  0.00    +0.150 HD
BRANCH  45  49
ATOM     49  CA  ASN A   2      19.599  12.112  19.656  0.00  0.00    +0.158 C 
BRANCH  49  51
ATOM     50  C   PHE A   1      21.269  13.745  18.953  0.00  0.00    +0.239 C 
ATOM     51  N   ASN A   2      20.028  13.477  19.334  0.00  0.00    -0.297 N 
ATOM     52  H   ASN A   2      19.341  14.254  19.406  0.00  0.00    +0.150 HD
ATOM     53  O   PHE A   1      22.133  12.868  18.802  0.00  0.00    -0.274 OA
BRANCH  50  54
ATOM     54  CA  PHE A   1      21.592  15.223  18.723  0.00  0.00    +0.149 C 
BRANCH  54  55
ATOM     55  N   PHE A   1      22.876  15.554  19.337  0.00  0.00    -0.238 NA
ATOM     56  H   PHE A   1      23.606  14.817  19.413  0.00  0.00    +0.142 HD
ENDBRANCH  54  55
BRANCH  54  57
ATOM     57  CB  PHE A   1      21.597  15.593  17.219  0.00  0.00    +0.053 C 
BRANCH  57  58
ATOM     58  CG  PHE A   1      20.240  15.968  16.672  0.00  0.00    -0.020 A 
ATOM     59  CD2 PHE A   1      19.652  17.189  17.003  0.00  0.00    -0.004 A 
ATOM     60  CE2 PHE A   1      18.392  17.533  16.512  0.00  0.00    -0.000 A 
ATOM     61  CZ  PHE A   1      17.709  16.646  15.670  0.00  0.00    -0.000 A 
ATOM     62  CE1 PHE A   1      18.291  15.426  15.333  0.00  0.00    -0.000 A 
ATOM     63  CD1 PHE A   1      19.549  15.098  15.824  0.00  0.00    -0.004 A 
ENDBRANCH  57  58
ENDBRANCH  54  57
ENDBRANCH  50  54
ENDBRANCH  49  51
BRANCH  49  64
ATOM     64  CB  ASN A   2      18.291  12.132  20.451  0.00  0.00    +0.114 C 
BRANCH  64  65
ATOM     65  CG  ASN A   2      18.494  12.595  21.879  0.00  0.00    +0.222 C 
ATOM     66  ND2 ASN A   2      17.420  13.045  22.512  0.00  0.00    -0.329 N 
ATOM     67 HD21 ASN A   2      17.495  13.369  23.498  0.00  0.00    +0.145 HD
ATOM     68 HD22 ASN A   2      16.503  13.075  22.023  0.00  0.00    +0.145 HD
ATOM     69  OD1 ASN A   2      19.601  12.539  22.410  0.00  0.00    -0.275 OA
ENDBRANCH  64  65
ENDBRANCH  49  64
ENDBRANCH  45  49
ENDBRANCH  44  47
BRANCH  44  70
ATOM     70  CB  VAL A   3      17.518  10.684  15.668  0.00  0.00    +0.027 C 
ATOM     71  CG2 VAL A   3      16.803   9.802  16.712  0.00  0.00    +0.002 C 
ATOM     72  CG1 VAL A   3      16.790  12.020  15.459  0.00  0.00    +0.002 C 
ENDBRANCH  44  70
ENDBRANCH  40  44
ENDBRANCH  39  42
ENDBRANCH   1  39
TORSDOF 29
REMARK  Name = ../refined-set-2016/3ebi/3ebi_pocket.pdb
REMARK  247 active torsions:
REMARK  status: ('A' for Active; 'I' for Inactive)
REMARK    1  A    between atoms: _1  and  _3
REMARK    2  A    between atoms: _3  and  _4
REMARK    3  A    between atoms: _7  and  _9
REMARK    4  A    between atoms: _9  and  _10
REMARK    5  A    between atoms: _9  and  _12
REMARK    6  A    between atoms: _12  and  _13
REMARK    7  A    between atoms: _16  and  _18
REMARK    8  A    between atoms: _18  and  _19
REMARK    9  A    between atoms: _18  and  _21
REMARK   10  A    between atoms: _21  and  _22
REMARK   11  A    between atoms: _25  and  _27
REMARK   12  A    between atoms: _27  and  _28
REMARK   13  A    between atoms: _30  and  _32
REMARK   14  A    between atoms: _32  and  _33
REMARK   15  A    between atoms: _32  and  _35
REMARK   16  A    between atoms: _35  and  _36
REMARK   17  A    between atoms: _36  and  _37
REMARK   18  A    between atoms: _42  and  _44
REMARK   19  A    between atoms: _44  and  _45
REMARK   20  A    between atoms: _44  and  _47
REMARK   21  A    between atoms: _49  and  _51
REMARK   22  A    between atoms: _51  and  _52
REMARK   23  A    between atoms: _51  and  _54
REMARK   24  A    between atoms: _54  and  _55
REMARK   25  A    between atoms: _55  and  _56
REMARK   26  A    between atoms: _59  and  _61
REMARK   27  A    between atoms: _61  and  _62
REMARK   28  A    between atoms: _65  and  _67
REMARK   29  A    between atoms: _67  and  _68
REMARK   30  A    between atoms: _67  and  _70
REMARK   31  A    between atoms: _70  and  _71
REMARK   32  A    between atoms: _74  and  _76
REMARK   33  A    between atoms: _76  and  _77
REMARK   34  A    between atoms: _79  and  _81
REMARK   35  A    between atoms: _81  and  _82
REMARK   36  A    between atoms: _81  and  _84
REMARK   37  A    between atoms: _84  and  _85
REMARK   38  A    between atoms: _90  and  _91
REMARK   39  A    between atoms: _93  and  _95
REMARK   40  A    between atoms: _95  and  _96
REMARK   41  A    between atoms: _95  and  _98
REMARK   42  A    between atoms: _98  and  _99
REMARK   43  A    between atoms: _102  and  _104
REMARK   44  A    between atoms: _104  and  _105
REMARK   45  A    between atoms: _104  and  _107
REMARK   46  A    between atoms: _107  and  _108
REMARK   47  A    between atoms: _114  and  _116
REMARK   48  A    between atoms: _116  and  _117
REMARK   49  A    between atoms: _116  and  _119
REMARK   50  A    between atoms: _119  and  _120
REMARK   51  A    between atoms: _125  and  _127
REMARK   52  A    between atoms: _127  and  _128
REMARK   53  A    between atoms: _127  and  _130
REMARK   54  A    between atoms: _133  and  _135
REMARK   55  A    between atoms: _135  and  _136
REMARK   56  A    between atoms: _138  and  _140
REMARK   57  A    between atoms: _140  and  _141
REMARK   58  A    between atoms: _144  and  _146
REMARK   59  A    between atoms: _146  and  _147
REMARK   60  A    between atoms: _146  and  _149
REMARK   61  A    between atoms: _149  and  _150
REMARK   62  A    between atoms: _150  and  _151
REMARK   63  A    between atoms: _153  and  _155
REMARK   64  A    between atoms: _155  and  _156
REMARK   65  A    between atoms: _155  and  _158
REMARK   66  A    between atoms: _158  and  _159
REMARK   67  A    between atoms: _159  and  _160
REMARK   68  A    between atoms: _163  and  _165
REMARK   69  A    between atoms: _165  and  _166
REMARK   70  A    between atoms: _165  and  _168
REMARK   71  A    between atoms: _168  and  _169
REMARK   72  A    between atoms: _174  and  _176
REMARK   73  A    between atoms: _176  and  _177
REMARK   74  A    between atoms: _176  and  _179
REMARK   75  A    between atoms: _179  and  _180
REMARK   76  A    between atoms: _183  and  _185
REMARK   77  A    between atoms: _185  and  _186
REMARK   78  A    between atoms: _185  and  _188
REMARK   79  A    between atoms: _188  and  _189
REMARK   80  A    between atoms: _195  and  _197
REMARK   81  A    between atoms: _197  and  _198
REMARK   82  A    between atoms: _197  and  _200
REMARK   83  A    between atoms: _200  and  _201
REMARK   84  A    between atoms: _206  and  _208
REMARK   85  A    between atoms: _208  and  _209
REMARK   86  A    between atoms: _208  and  _211
REMARK   87  A    between atoms: _211  and  _212
REMARK   88  A    between atoms: _217  and  _219
REMARK   89  A    between atoms: _219  and  _220
REMARK   90  A    between atoms: _219  and  _222
REMARK   91  A    between atoms: _222  and  _223
REMARK   92  A    between atoms: _225  and  _227
REMARK   93  A    between atoms: _227  and  _228
REMARK   94  A    between atoms: _227  and  _230
REMARK   95  A    between atoms: _230  and  _231
REMARK   96  A    between atoms: _237  and  _239
REMARK   97  A    between atoms: _239  and  _240
REMARK   98  A    between atoms: _243  and  _245
REMARK   99  A    between atoms: _245  and  _246
REMARK  100  A    between atoms: _245  and  _248
REMARK  101  A    between atoms: _248  and  _249
REMARK  102  A    between atoms: _249  and  _250
REMARK  103  A    between atoms: _250  and  _251
REMARK  104  A    between atoms: _260  and  _262
REMARK  105  A    between atoms: _262  and  _263
REMARK  106  A    between atoms: _262  and  _265
REMARK  107  A    between atoms: _265  and  _266
REMARK  108  A    between atoms: _269  and  _271
REMARK  109  A    between atoms: _271  and  _272
REMARK  110  A    between atoms: _271  and  _274
REMARK  111  A    between atoms: _274  and  _275
REMARK  112  A    between atoms: _278  and  _280
REMARK  113  A    between atoms: _280  and  _281
REMARK  114  A    between atoms: _280  and  _283
REMARK  115  A    between atoms: _283  and  _284
REMARK  116  A    between atoms: _287  and  _289
REMARK  117  A    between atoms: _289  and  _290
REMARK  118  A    between atoms: _289  and  _292
REMARK  119  A    between atoms: _295  and  _297
REMARK  120  A    between atoms: _297  and  _298
REMARK  121  A    between atoms: _297  and  _300
REMARK  122  A    between atoms: _303  and  _305
REMARK  123  A    between atoms: _305  and  _306
REMARK  124  A    between atoms: _308  and  _310
REMARK  125  A    between atoms: _310  and  _311
REMARK  126  A    between atoms: _310  and  _313
REMARK  127  A    between atoms: _313  and  _314
REMARK  128  A    between atoms: _318  and  ZN_601
REMARK  129  A    between atoms: _319  and  _321
REMARK  130  A    between atoms: _321  and  _322
REMARK  131  A    between atoms: _321  and  _324
REMARK  132  A    between atoms: _324  and  _325
REMARK  133  A    between atoms: _325  and  _326
REMARK  134  A    between atoms: _329  and  _331
REMARK  135  A    between atoms: _331  and  _332
REMARK  136  A    between atoms: _331  and  _334
REMARK  137  A    between atoms: _334  and  _335
REMARK  138  A    between atoms: _340  and  _341
REMARK  139  A    between atoms: _343  and  _345
REMARK  140  A    between atoms: _345  and  _346
REMARK  141  A    between atoms: _345  and  _348
REMARK  142  A    between atoms: _348  and  _349
REMARK  143  A    between atoms: _353  and  ZN_601
REMARK  144  A    between atoms: _354  and  _356
REMARK  145  A    between atoms: _356  and  _357
REMARK  146  A    between atoms: _356  and  _359
REMARK  147  A    between atoms: _359  and  _360
REMARK  148  A    between atoms: _365  and  _367
REMARK  149  A    between atoms: _367  and  _368
REMARK  150  A    between atoms: _367  and  _370
REMARK  151  A    between atoms: _370  and  _371
REMARK  152  A    between atoms: _381  and  _383
REMARK  153  A    between atoms: _383  and  _384
REMARK  154  A    between atoms: _383  and  _386
REMARK  155  A    between atoms: _386  and  _387
REMARK  156  A    between atoms: _390  and  _392
REMARK  157  A    between atoms: _392  and  _393
REMARK  158  A    between atoms: _392  and  _395
REMARK  159  A    between atoms: _395  and  _396
REMARK  160  A    between atoms: _396  and  _397
REMARK  161  A    between atoms: _397  and  _398
REMARK  162  A    between atoms: _398  and  _399
REMARK  163  A    between atoms: _403  and  _405
REMARK  164  A    between atoms: _405  and  _406
REMARK  165  A    between atoms: _405  and  _408
REMARK  166  A    between atoms: _408  and  _409
REMARK  167  A    between atoms: _409  and  _410
REMARK  168  A    between atoms: _410  and  _411
REMARK  169  A    between atoms: _411  and  ZN_601
REMARK  170  A    between atoms: _413  and  _415
REMARK  171  A    between atoms: _415  and  _416
REMARK  172  A    between atoms: _418  and  _420
REMARK  173  A    between atoms: _420  and  _421
REMARK  174  A    between atoms: _420  and  _423
REMARK  175  A    between atoms: _423  and  _424
REMARK  176  A    between atoms: _427  and  _429
REMARK  177  A    between atoms: _429  and  _430
REMARK  178  A    between atoms: _429  and  _432
REMARK  179  A    between atoms: _435  and  _437
REMARK  180  A    between atoms: _437  and  _438
REMARK  181  A    between atoms: _437  and  _440
REMARK  182  A    between atoms: _440  and  _441
REMARK  183  A    between atoms: _441  and  _442
REMARK  184  A    between atoms: _445  and  _447
REMARK  185  A    between atoms: _447  and  _448
REMARK  186  A    between atoms: _447  and  _450
REMARK  187  A    between atoms: _450  and  _451
REMARK  188  A    between atoms: _456  and  _458
REMARK  189  A    between atoms: _458  and  _459
REMARK  190  A    between atoms: _458  and  _461
REMARK  191  A    between atoms: _461  and  _462
REMARK  192  A    between atoms: _464  and  _466
REMARK  193  A    between atoms: _466  and  _467
REMARK  194  A    between atoms: _466  and  _469
REMARK  195  A    between atoms: _469  and  _470
REMARK  196  A    between atoms: _470  and  _471
REMARK  197  A    between atoms: _473  and  _475
REMARK  198  A    between atoms: _475  and  _476
REMARK  199  A    between atoms: _475  and  _478
REMARK  200  A    between atoms: _478  and  _479
REMARK  201  A    between atoms: _479  and  _480
REMARK  202  A    between atoms: _483  and  _485
REMARK  203  A    between atoms: _485  and  _486
REMARK  204  A    between atoms: _485  and  _488
REMARK  205  A    between atoms: _488  and  _489
REMARK  206  A    between atoms: _494  and  _496
REMARK  207  A    between atoms: _496  and  _497
REMARK  208  A    between atoms: _496  and  _499
REMARK  209  A    between atoms: _499  and  _500
REMARK  210  A    between atoms: _506  and  _508
REMARK  211  A    between atoms: _508  and  _509
REMARK  212  A    between atoms: _508  and  _511
REMARK  213  A    between atoms: _511  and  _512
REMARK  214  A    between atoms: _517  and  _518
REMARK  215  A    between atoms: _520  and  _522
REMARK  216  A    between atoms: _522  and  _523
REMARK  217  A    between atoms: _522  and  _525
REMARK  218  A    between atoms: _525  and  _526
REMARK  219  A    between atoms: _529  and  _531
REMARK  220  A    between atoms: _531  and  _532
REMARK  221  A    between atoms: _531  and  _534
REMARK  222  A    between atoms: _534  and  _535
REMARK  223  A    between atoms: _540  and  _541
REMARK  224  A    between atoms: _543  and  _545
REMARK  225  A    between atoms: _545  and  _546
REMARK  226  A    between atoms: _545  and  _548
REMARK  227  A    between atoms: _548  and  _549
REMARK  228  A    between atoms: _552  and  _554
REMARK  229  A    between atoms: _554  and  _555
REMARK  230  A    between atoms: _554  and  _557
REMARK  231  A    between atoms: _557  and  _558
REMARK  232  A    between atoms: _558  and  _559
REMARK  233  A    between atoms: _559  and  _560
REMARK  234  A    between atoms: _569  and  _571
REMARK  235  A    between atoms: _571  and  _572
REMARK  236  A    between atoms: _571  and  _574
REMARK  237  A    between atoms: _574  and  _575
REMARK  238  A    between atoms: _575  and  _576
REMARK  239  A    between atoms: _578  and  _580
REMARK  240  A    between atoms: _580  and  _581
REMARK  241  A    between atoms: _580  and  _583
REMARK  242  A    between atoms: _583  and  _584
REMARK  243  A    between atoms: _584  and  _585
REMARK  244  A    between atoms: _590  and  _592
REMARK  245  A    between atoms: _592  and  _593
REMARK  246  A    between atoms: _592  and  _595
REMARK  247  A    between atoms: _595  and  _596
REMARK                            x       y       z     vdW  Elec       q    Type
REMARK                         _______ _______ _______ _____ _____    ______ ____
ROOT
ATOM      1  CA  PHE A   2      21.028  17.745  11.803  0.00  0.00    +0.153 C 
ENDROOT
BRANCH   1   4
ATOM      2  C   ILE A   1      18.946  19.012  12.132  0.00  0.00    +0.238 C 
ATOM      3  O   ILE A   1      18.232  18.004  12.124  0.00  0.00    -0.274 OA
ATOM      4  N   PHE A   2      20.275  18.973  12.091  0.00  0.00    -0.297 N 
ATOM      5  H   PHE A   2      20.804  19.850  12.271  0.00  0.00    +0.150 HD
BRANCH   2   6
ATOM      6  CA  ILE A   1      18.319  20.407  12.175  0.00  0.00    +0.145 C 
BRANCH   6   7
ATOM      7  N   ILE A   1      17.201  20.463  11.228  0.00  0.00    -0.238 NA
ATOM      8  H   ILE A   1      16.359  19.875  11.392  0.00  0.00    +0.142 HD
ENDBRANCH   6   7
BRANCH   6   9
ATOM      9  CB  ILE A   1      17.877  20.824  13.605  0.00  0.00    +0.025 C 
ATOM     10  CG2 ILE A   1      19.014  20.638  14.616  0.00  0.00    +0.002 C 
BRANCH   9  11
ATOM     11  CG1 ILE A   1      17.405  22.288  13.592  0.00  0.00    +0.002 C 
ATOM     12  CD1 ILE A   1      16.589  22.726  14.796  0.00  0.00    +0.000 C 
ENDBRANCH   9  11
ENDBRANCH   6   9
ENDBRANCH   2   6
ENDBRANCH   1   4
BRANCH   1  13
ATOM     13  C   PHE A   2      22.055  17.432  12.871  0.00  0.00    +0.241 C 
ATOM     14  O   PHE A   2      22.801  18.326  13.323  0.00  0.00    -0.273 OA
ATOM     15  N   ASN A   3      22.109  16.164  13.267  0.00  0.00    -0.298 N 
ATOM     16  H   ASN A   3      21.282  15.546  13.143  0.00  0.00    +0.150 HD
BRANCH  15  17
ATOM     17  CA  ASN A   3      23.326  15.638  13.875  0.00  0.00    +0.146 C 
BRANCH  17  18
ATOM     18  C   ASN A   3      24.452  16.048  12.929  0.00  0.00    +0.227 C 
ATOM     19  O   ASN A   3      24.358  15.815  11.723  0.00  0.00    -0.286 OA
ENDBRANCH  17  18
BRANCH  17  20
ATOM     20  CB  ASN A   3      23.255  14.110  13.996  0.00  0.00    +0.112 C 
BRANCH  20  21
ATOM     21  CG  ASN A   3      24.380  13.522  14.858  0.00  0.00    +0.222 C 
ATOM     22  ND2 ASN A   3      24.032  12.560  15.708  0.00  0.00    -0.329 N 
ATOM     23 HD21 ASN A   3      24.753  12.111  16.308  0.00  0.00    +0.145 HD
ATOM     24 HD22 ASN A   3      23.039  12.257  15.772  0.00  0.00    +0.145 HD
ATOM     25  OD1 ASN A   3      25.536  13.912  14.747  0.00  0.00    -0.275 OA
ENDBRANCH  20  21
ENDBRANCH  17  20
ENDBRANCH  15  17
ENDBRANCH   1  13
BRANCH   1  26
ATOM     26  CB  PHE A   2      21.801  17.876  10.489  0.00  0.00    +0.055 C 
BRANCH  26  27
ATOM     27  CG  PHE A   2      20.944  17.892   9.270  0.00  0.00    -0.020 A 
ATOM     28  CD2 PHE A   2      20.231  19.041   8.911  0.00  0.00    -0.004 A 
ATOM     29  CE2 PHE A   2      19.445  19.058   7.773  0.00  0.00    -0.000 A 
ATOM     30  CZ  PHE A   2      19.363  17.920   6.972  0.00  0.00    -0.000 A 
ATOM     31  CE1 PHE A   2      20.081  16.777   7.309  0.00  0.00    -0.000 A 
ATOM     32  CD1 PHE A   2      20.869  16.768   8.451  0.00  0.00    -0.004 A 
ENDBRANCH  26  27
ENDBRANCH   1  26
TORSDOF 12
REMARK  Name = ../refined-set-2016/3ebi/3ebi_pocket.pdb
REMARK  247 active torsions:
REMARK  status: ('A' for Active; 'I' for Inactive)
REMARK    1  A    between atoms: _1  and  _3
REMARK    2  A    between atoms: _3  and  _4
REMARK    3  A    between atoms: _7  and  _9
REMARK    4  A    between atoms: _9  and  _10
REMARK    5  A    between atoms: _9  and  _12
REMARK    6  A    between atoms: _12  and  _13
REMARK    7  A    between atoms: _16  and  _18
REMARK    8  A    between atoms: _18  and  _19
REMARK    9  A    between atoms: _18  and  _21
REMARK   10  A    between atoms: _21  and  _22
REMARK   11  A    between atoms: _25  and  _27
REMARK   12  A    between atoms: _27  and  _28
REMARK   13  A    between atoms: _30  and  _32
REMARK   14  A    between atoms: _32  and  _33
REMARK   15  A    between atoms: _32  and  _35
REMARK   16  A    between atoms: _35  and  _36
REMARK   17  A    between atoms: _36  and  _37
REMARK   18  A    between atoms: _42  and  _44
REMARK   19  A    between atoms: _44  and  _45
REMARK   20  A    between atoms: _44  and  _47
REMARK   21  A    between atoms: _49  and  _51
REMARK   22  A    between atoms: _51  and  _52
REMARK   23  A    between atoms: _51  and  _54
REMARK   24  A    between atoms: _54  and  _55
REMARK   25  A    between atoms: _55  and  _56
REMARK   26  A    between atoms: _59  and  _61
REMARK   27  A    between atoms: _61  and  _62
REMARK   28  A    between atoms: _65  and  _67
REMARK   29  A    between atoms: _67  and  _68
REMARK   30  A    between atoms: _67  and  _70
REMARK   31  A    between atoms: _70  and  _71
REMARK   32  A    between atoms: _74  and  _76
REMARK   33  A    between atoms: _76  and  _77
REMARK   34  A    between atoms: _79  and  _81
REMARK   35  A    between atoms: _81  and  _82
REMARK   36  A    between atoms: _81  and  _84
REMARK   37  A    between atoms: _84  and  _85
REMARK   38  A    between atoms: _90  and  _91
REMARK   39  A    between atoms: _93  and  _95
REMARK   40  A    between atoms: _95  and  _96
REMARK   41  A    between atoms: _95  and  _98
REMARK   42  A    between atoms: _98  and  _99
REMARK   43  A    between atoms: _102  and  _104
REMARK   44  A    between atoms: _104  and  _105
REMARK   45  A    between atoms: _104  and  _107
REMARK   46  A    between atoms: _107  and  _108
REMARK   47  A    between atoms: _114  and  _116
REMARK   48  A    between atoms: _116  and  _117
REMARK   49  A    between atoms: _116  and  _119
REMARK   50  A    between atoms: _119  and  _120
REMARK   51  A    between atoms: _125  and  _127
REMARK   52  A    between atoms: _127  and  _128
REMARK   53  A    between atoms: _127  and  _130
REMARK   54  A    between atoms: _133  and  _135
REMARK   55  A    between atoms: _135  and  _136
REMARK   56  A    between atoms: _138  and  _140
REMARK   57  A    between atoms: _140  and  _141
REMARK   58  A    between atoms: _144  and  _146
REMARK   59  A    between atoms: _146  and  _147
REMARK   60  A    between atoms: _146  and  _149
REMARK   61  A    between atoms: _149  and  _150
REMARK   62  A    between atoms: _150  and  _151
REMARK   63  A    between atoms: _153  and  _155
REMARK   64  A    between atoms: _155  and  _156
REMARK   65  A    between atoms: _155  and  _158
REMARK   66  A    between atoms: _158  and  _159
REMARK   67  A    between atoms: _159  and  _160
REMARK   68  A    between atoms: _163  and  _165
REMARK   69  A    between atoms: _165  and  _166
REMARK   70  A    between atoms: _165  and  _168
REMARK   71  A    between atoms: _168  and  _169
REMARK   72  A    between atoms: _174  and  _176
REMARK   73  A    between atoms: _176  and  _177
REMARK   74  A    between atoms: _176  and  _179
REMARK   75  A    between atoms: _179  and  _180
REMARK   76  A    between atoms: _183  and  _185
REMARK   77  A    between atoms: _185  and  _186
REMARK   78  A    between atoms: _185  and  _188
REMARK   79  A    between atoms: _188  and  _189
REMARK   80  A    between atoms: _195  and  _197
REMARK   81  A    between atoms: _197  and  _198
REMARK   82  A    between atoms: _197  and  _200
REMARK   83  A    between atoms: _200  and  _201
REMARK   84  A    between atoms: _206  and  _208
REMARK   85  A    between atoms: _208  and  _209
REMARK   86  A    between atoms: _208  and  _211
REMARK   87  A    between atoms: _211  and  _212
REMARK   88  A    between atoms: _217  and  _219
REMARK   89  A    between atoms: _219  and  _220
REMARK   90  A    between atoms: _219  and  _222
REMARK   91  A    between atoms: _222  and  _223
REMARK   92  A    between atoms: _225  and  _227
REMARK   93  A    between atoms: _227  and  _228
REMARK   94  A    between atoms: _227  and  _230
REMARK   95  A    between atoms: _230  and  _231
REMARK   96  A    between atoms: _237  and  _239
REMARK   97  A    between atoms: _239  and  _240
REMARK   98  A    between atoms: _243  and  _245
REMARK   99  A    between atoms: _245  and  _246
REMARK  100  A    between atoms: _245  and  _248
REMARK  101  A    between atoms: _248  and  _249
REMARK  102  A    between atoms: _249  and  _250
REMARK  103  A    between atoms: _250  and  _251
REMARK  104  A    between atoms: _260  and  _262
REMARK  105  A    between atoms: _262  and  _263
REMARK  106  A    between atoms: _262  and  _265
REMARK  107  A    between atoms: _265  and  _266
REMARK  108  A    between atoms: _269  and  _271
REMARK  109  A    between atoms: _271  and  _272
REMARK  110  A    between atoms: _271  and  _274
REMARK  111  A    between atoms: _274  and  _275
REMARK  112  A    between atoms: _278  and  _280
REMARK  113  A    between atoms: _280  and  _281
REMARK  114  A    between atoms: _280  and  _283
REMARK  115  A    between atoms: _283  and  _284
REMARK  116  A    between atoms: _287  and  _289
REMARK  117  A    between atoms: _289  and  _290
REMARK  118  A    between atoms: _289  and  _292
REMARK  119  A    between atoms: _295  and  _297
REMARK  120  A    between atoms: _297  and  _298
REMARK  121  A    between atoms: _297  and  _300
REMARK  122  A    between atoms: _303  and  _305
REMARK  123  A    between atoms: _305  and  _306
REMARK  124  A    between atoms: _308  and  _310
REMARK  125  A    between atoms: _310  and  _311
REMARK  126  A    between atoms: _310  and  _313
REMARK  127  A    between atoms: _313  and  _314
REMARK  128  A    between atoms: _318  and  ZN_601
REMARK  129  A    between atoms: _319  and  _321
REMARK  130  A    between atoms: _321  and  _322
REMARK  131  A    between atoms: _321  and  _324
REMARK  132  A    between atoms: _324  and  _325
REMARK  133  A    between atoms: _325  and  _326
REMARK  134  A    between atoms: _329  and  _331
REMARK  135  A    between atoms: _331  and  _332
REMARK  136  A    between atoms: _331  and  _334
REMARK  137  A    between atoms: _334  and  _335
REMARK  138  A    between atoms: _340  and  _341
REMARK  139  A    between atoms: _343  and  _345
REMARK  140  A    between atoms: _345  and  _346
REMARK  141  A    between atoms: _345  and  _348
REMARK  142  A    between atoms: _348  and  _349
REMARK  143  A    between atoms: _353  and  ZN_601
REMARK  144  A    between atoms: _354  and  _356
REMARK  145  A    between atoms: _356  and  _357
REMARK  146  A    between atoms: _356  and  _359
REMARK  147  A    between atoms: _359  and  _360
REMARK  148  A    between atoms: _365  and  _367
REMARK  149  A    between atoms: _367  and  _368
REMARK  150  A    between atoms: _367  and  _370
REMARK  151  A    between atoms: _370  and  _371
REMARK  152  A    between atoms: _381  and  _383
REMARK  153  A    between atoms: _383  and  _384
REMARK  154  A    between atoms: _383  and  _386
REMARK  155  A    between atoms: _386  and  _387
REMARK  156  A    between atoms: _390  and  _392
REMARK  157  A    between atoms: _392  and  _393
REMARK  158  A    between atoms: _392  and  _395
REMARK  159  A    between atoms: _395  and  _396
REMARK  160  A    between atoms: _396  and  _397
REMARK  161  A    between atoms: _397  and  _398
REMARK  162  A    between atoms: _398  and  _399
REMARK  163  A    between atoms: _403  and  _405
REMARK  164  A    between atoms: _405  and  _406
REMARK  165  A    between atoms: _405  and  _408
REMARK  166  A    between atoms: _408  and  _409
REMARK  167  A    between atoms: _409  and  _410
REMARK  168  A    between atoms: _410  and  _411
REMARK  169  A    between atoms: _411  and  ZN_601
REMARK  170  A    between atoms: _413  and  _415
REMARK  171  A    between atoms: _415  and  _416
REMARK  172  A    between atoms: _418  and  _420
REMARK  173  A    between atoms: _420  and  _421
REMARK  174  A    between atoms: _420  and  _423
REMARK  175  A    between atoms: _423  and  _424
REMARK  176  A    between atoms: _427  and  _429
REMARK  177  A    between atoms: _429  and  _430
REMARK  178  A    between atoms: _429  and  _432
REMARK  179  A    between atoms: _435  and  _437
REMARK  180  A    between atoms: _437  and  _438
REMARK  181  A    between atoms: _437  and  _440
REMARK  182  A    between atoms: _440  and  _441
REMARK  183  A    between atoms: _441  and  _442
REMARK  184  A    between atoms: _445  and  _447
REMARK  185  A    between atoms: _447  and  _448
REMARK  186  A    between atoms: _447  and  _450
REMARK  187  A    between atoms: _450  and  _451
REMARK  188  A    between atoms: _456  and  _458
REMARK  189  A    between atoms: _458  and  _459
REMARK  190  A    between atoms: _458  and  _461
REMARK  191  A    between atoms: _461  and  _462
REMARK  192  A    between atoms: _464  and  _466
REMARK  193  A    between atoms: _466  and  _467
REMARK  194  A    between atoms: _466  and  _469
REMARK  195  A    between atoms: _469  and  _470
REMARK  196  A    between atoms: _470  and  _471
REMARK  197  A    between atoms: _473  and  _475
REMARK  198  A    between atoms: _475  and  _476
REMARK  199  A    between atoms: _475  and  _478
REMARK  200  A    between atoms: _478  and  _479
REMARK  201  A    between atoms: _479  and  _480
REMARK  202  A    between atoms: _483  and  _485
REMARK  203  A    between atoms: _485  and  _486
REMARK  204  A    between atoms: _485  and  _488
REMARK  205  A    between atoms: _488  and  _489
REMARK  206  A    between atoms: _494  and  _496
REMARK  207  A    between atoms: _496  and  _497
REMARK  208  A    between atoms: _496  and  _499
REMARK  209  A    between atoms: _499  and  _500
REMARK  210  A    between atoms: _506  and  _508
REMARK  211  A    between atoms: _508  and  _509
REMARK  212  A    between atoms: _508  and  _511
REMARK  213  A    between atoms: _511  and  _512
REMARK  214  A    between atoms: _517  and  _518
REMARK  215  A    between atoms: _520  and  _522
REMARK  216  A    between atoms: _522  and  _523
REMARK  217  A    between atoms: _522  and  _525
REMARK  218  A    between atoms: _525  and  _526
REMARK  219  A    between atoms: _529  and  _531
REMARK  220  A    between atoms: _531  and  _532
REMARK  221  A    between atoms: _531  and  _534
REMARK  222  A    between atoms: _534  and  _535
REMARK  223  A    between atoms: _540  and  _541
REMARK  224  A    between atoms: _543  and  _545
REMARK  225  A    between atoms: _545  and  _546
REMARK  226  A    between atoms: _545  and  _548
REMARK  227  A    between atoms: _548  and  _549
REMARK  228  A    between atoms: _552  and  _554
REMARK  229  A    between atoms: _554  and  _555
REMARK  230  A    between atoms: _554  and  _557
REMARK  231  A    between atoms: _557  and  _558
REMARK  232  A    between atoms: _558  and  _559
REMARK  233  A    between atoms: _559  and  _560
REMARK  234  A    between atoms: _569  and  _571
REMARK  235  A    between atoms: _571  and  _572
REMARK  236  A    between atoms: _571  and  _574
REMARK  237  A    between atoms: _574  and  _575
REMARK  238  A    between atoms: _575  and  _576
REMARK  239  A    between atoms: _578  and  _580
REMARK  240  A    between atoms: _580  and  _581
REMARK  241  A    between atoms: _580  and  _583
REMARK  242  A    between atoms: _583  and  _584
REMARK  243  A    between atoms: _584  and  _585
REMARK  244  A    between atoms: _590  and  _592
REMARK  245  A    between atoms: _592  and  _593
REMARK  246  A    between atoms: _592  and  _595
REMARK  247  A    between atoms: _595  and  _596
REMARK                            x       y       z     vdW  Elec       q    Type
REMARK                         _______ _______ _______ _____ _____    ______ ____
ROOT
ATOM      1  C   ASN A   1      26.861  13.150  10.432  0.00  0.00    +0.239 C 
ATOM      2  N   SER A   2      25.694  13.786  10.289  0.00  0.00    -0.296 N 
ATOM      3  H   SER A   2      25.392  14.457  11.024  0.00  0.00    +0.150 HD
ATOM      4  O   ASN A   1      27.269  12.308   9.631  0.00  0.00    -0.274 OA
ENDROOT
BRANCH   1   5
ATOM      5  CA  ASN A   1      27.704  13.514  11.668  0.00  0.00    +0.154 C 
BRANCH   5   6
ATOM      6  N   ASN A   1      27.230  14.705  12.401  0.00  0.00    -0.238 NA
ATOM      7  H   ASN A   1      26.887  14.600  13.377  0.00  0.00    +0.142 HD
ENDBRANCH   5   6
BRANCH   5   8
ATOM      8  CB  ASN A   1      27.929  12.296  12.600  0.00  0.00    +0.111 C 
BRANCH   8   9
ATOM      9  CG  ASN A   1      26.626  11.590  13.023  0.00  0.00    +0.221 C 
ATOM     10  ND2 ASN A   1      26.738  10.729  14.027  0.00  0.00    -0.329 N 
ATOM     11 HD21 ASN A   1      27.662  10.574  14.479  0.00  0.00    +0.145 HD
ATOM     12 HD22 ASN A   1      25.902  10.209  14.362  0.00  0.00    +0.145 HD
ATOM     13  OD1 ASN A   1      25.555  11.805  12.459  0.00  0.00    -0.275 OA
ENDBRANCH   8   9
ENDBRANCH   5   8
ENDBRANCH   1   5
BRANCH   2  14
ATOM     14  CA  SER A   2      24.827  13.567   9.129  0.00  0.00    +0.166 C 
BRANCH  14  15
ATOM     15  C   SER A   2      24.712  14.762   8.179  0.00  0.00    +0.229 C 
ATOM     16  O   SER A   2      23.858  14.762   7.285  0.00  0.00    -0.286 OA
ENDBRANCH  14  15
BRANCH  14  17
ATOM     17  CB  SER A   2      23.433  13.134   9.581  0.00  0.00    +0.165 C 
BRANCH  17  18
ATOM     18  OG  SER A   2      23.484  11.891  10.245  0.00  0.00    -0.380 OA
ATOM     19  H   SER A   2      24.068  11.967  11.041  0.00  0.00    +0.211 HD
ENDBRANCH  17  18
ENDBRANCH  14  17
ENDBRANCH   2  14
TORSDOF 8
REMARK  Name = ../refined-set-2016/3ebi/3ebi_pocket.pdb
REMARK  247 active torsions:
REMARK  status: ('A' for Active; 'I' for Inactive)
REMARK    1  A    between atoms: _1  and  _3
REMARK    2  A    between atoms: _3  and  _4
REMARK    3  A    between atoms: _7  and  _9
REMARK    4  A    between atoms: _9  and  _10
REMARK    5  A    between atoms: _9  and  _12
REMARK    6  A    between atoms: _12  and  _13
REMARK    7  A    between atoms: _16  and  _18
REMARK    8  A    between atoms: _18  and  _19
REMARK    9  A    between atoms: _18  and  _21
REMARK   10  A    between atoms: _21  and  _22
REMARK   11  A    between atoms: _25  and  _27
REMARK   12  A    between atoms: _27  and  _28
REMARK   13  A    between atoms: _30  and  _32
REMARK   14  A    between atoms: _32  and  _33
REMARK   15  A    between atoms: _32  and  _35
REMARK   16  A    between atoms: _35  and  _36
REMARK   17  A    between atoms: _36  and  _37
REMARK   18  A    between atoms: _42  and  _44
REMARK   19  A    between atoms: _44  and  _45
REMARK   20  A    between atoms: _44  and  _47
REMARK   21  A    between atoms: _49  and  _51
REMARK   22  A    between atoms: _51  and  _52
REMARK   23  A    between atoms: _51  and  _54
REMARK   24  A    between atoms: _54  and  _55
REMARK   25  A    between atoms: _55  and  _56
REMARK   26  A    between atoms: _59  and  _61
REMARK   27  A    between atoms: _61  and  _62
REMARK   28  A    between atoms: _65  and  _67
REMARK   29  A    between atoms: _67  and  _68
REMARK   30  A    between atoms: _67  and  _70
REMARK   31  A    between atoms: _70  and  _71
REMARK   32  A    between atoms: _74  and  _76
REMARK   33  A    between atoms: _76  and  _77
REMARK   34  A    between atoms: _79  and  _81
REMARK   35  A    between atoms: _81  and  _82
REMARK   36  A    between atoms: _81  and  _84
REMARK   37  A    between atoms: _84  and  _85
REMARK   38  A    between atoms: _90  and  _91
REMARK   39  A    between atoms: _93  and  _95
REMARK   40  A    between atoms: _95  and  _96
REMARK   41  A    between atoms: _95  and  _98
REMARK   42  A    between atoms: _98  and  _99
REMARK   43  A    between atoms: _102  and  _104
REMARK   44  A    between atoms: _104  and  _105
REMARK   45  A    between atoms: _104  and  _107
REMARK   46  A    between atoms: _107  and  _108
REMARK   47  A    between atoms: _114  and  _116
REMARK   48  A    between atoms: _116  and  _117
REMARK   49  A    between atoms: _116  and  _119
REMARK   50  A    between atoms: _119  and  _120
REMARK   51  A    between atoms: _125  and  _127
REMARK   52  A    between atoms: _127  and  _128
REMARK   53  A    between atoms: _127  and  _130
REMARK   54  A    between atoms: _133  and  _135
REMARK   55  A    between atoms: _135  and  _136
REMARK   56  A    between atoms: _138  and  _140
REMARK   57  A    between atoms: _140  and  _141
REMARK   58  A    between atoms: _144  and  _146
REMARK   59  A    between atoms: _146  and  _147
REMARK   60  A    between atoms: _146  and  _149
REMARK   61  A    between atoms: _149  and  _150
REMARK   62  A    between atoms: _150  and  _151
REMARK   63  A    between atoms: _153  and  _155
REMARK   64  A    between atoms: _155  and  _156
REMARK   65  A    between atoms: _155  and  _158
REMARK   66  A    between atoms: _158  and  _159
REMARK   67  A    between atoms: _159  and  _160
REMARK   68  A    between atoms: _163  and  _165
REMARK   69  A    between atoms: _165  and  _166
REMARK   70  A    between atoms: _165  and  _168
REMARK   71  A    between atoms: _168  and  _169
REMARK   72  A    between atoms: _174  and  _176
REMARK   73  A    between atoms: _176  and  _177
REMARK   74  A    between atoms: _176  and  _179
REMARK   75  A    between atoms: _179  and  _180
REMARK   76  A    between atoms: _183  and  _185
REMARK   77  A    between atoms: _185  and  _186
REMARK   78  A    between atoms: _185  and  _188
REMARK   79  A    between atoms: _188  and  _189
REMARK   80  A    between atoms: _195  and  _197
REMARK   81  A    between atoms: _197  and  _198
REMARK   82  A    between atoms: _197  and  _200
REMARK   83  A    between atoms: _200  and  _201
REMARK   84  A    between atoms: _206  and  _208
REMARK   85  A    between atoms: _208  and  _209
REMARK   86  A    between atoms: _208  and  _211
REMARK   87  A    between atoms: _211  and  _212
REMARK   88  A    between atoms: _217  and  _219
REMARK   89  A    between atoms: _219  and  _220
REMARK   90  A    between atoms: _219  and  _222
REMARK   91  A    between atoms: _222  and  _223
REMARK   92  A    between atoms: _225  and  _227
REMARK   93  A    between atoms: _227  and  _228
REMARK   94  A    between atoms: _227  and  _230
REMARK   95  A    between atoms: _230  and  _231
REMARK   96  A    between atoms: _237  and  _239
REMARK   97  A    between atoms: _239  and  _240
REMARK   98  A    between atoms: _243  and  _245
REMARK   99  A    between atoms: _245  and  _246
REMARK  100  A    between atoms: _245  and  _248
REMARK  101  A    between atoms: _248  and  _249
REMARK  102  A    between atoms: _249  and  _250
REMARK  103  A    between atoms: _250  and  _251
REMARK  104  A    between atoms: _260  and  _262
REMARK  105  A    between atoms: _262  and  _263
REMARK  106  A    between atoms: _262  and  _265
REMARK  107  A    between atoms: _265  and  _266
REMARK  108  A    between atoms: _269  and  _271
REMARK  109  A    between atoms: _271  and  _272
REMARK  110  A    between atoms: _271  and  _274
REMARK  111  A    between atoms: _274  and  _275
REMARK  112  A    between atoms: _278  and  _280
REMARK  113  A    between atoms: _280  and  _281
REMARK  114  A    between atoms: _280  and  _283
REMARK  115  A    between atoms: _283  and  _284
REMARK  116  A    between atoms: _287  and  _289
REMARK  117  A    between atoms: _289  and  _290
REMARK  118  A    between atoms: _289  and  _292
REMARK  119  A    between atoms: _295  and  _297
REMARK  120  A    between atoms: _297  and  _298
REMARK  121  A    between atoms: _297  and  _300
REMARK  122  A    between atoms: _303  and  _305
REMARK  123  A    between atoms: _305  and  _306
REMARK  124  A    between atoms: _308  and  _310
REMARK  125  A    between atoms: _310  and  _311
REMARK  126  A    between atoms: _310  and  _313
REMARK  127  A    between atoms: _313  and  _314
REMARK  128  A    between atoms: _318  and  ZN_601
REMARK  129  A    between atoms: _319  and  _321
REMARK  130  A    between atoms: _321  and  _322
REMARK  131  A    between atoms: _321  and  _324
REMARK  132  A    between atoms: _324  and  _325
REMARK  133  A    between atoms: _325  and  _326
REMARK  134  A    between atoms: _329  and  _331
REMARK  135  A    between atoms: _331  and  _332
REMARK  136  A    between atoms: _331  and  _334
REMARK  137  A    between atoms: _334  and  _335
REMARK  138  A    between atoms: _340  and  _341
REMARK  139  A    between atoms: _343  and  _345
REMARK  140  A    between atoms: _345  and  _346
REMARK  141  A    between atoms: _345  and  _348
REMARK  142  A    between atoms: _348  and  _349
REMARK  143  A    between atoms: _353  and  ZN_601
REMARK  144  A    between atoms: _354  and  _356
REMARK  145  A    between atoms: _356  and  _357
REMARK  146  A    between atoms: _356  and  _359
REMARK  147  A    between atoms: _359  and  _360
REMARK  148  A    between atoms: _365  and  _367
REMARK  149  A    between atoms: _367  and  _368
REMARK  150  A    between atoms: _367  and  _370
REMARK  151  A    between atoms: _370  and  _371
REMARK  152  A    between atoms: _381  and  _383
REMARK  153  A    between atoms: _383  and  _384
REMARK  154  A    between atoms: _383  and  _386
REMARK  155  A    between atoms: _386  and  _387
REMARK  156  A    between atoms: _390  and  _392
REMARK  157  A    between atoms: _392  and  _393
REMARK  158  A    between atoms: _392  and  _395
REMARK  159  A    between atoms: _395  and  _396
REMARK  160  A    between atoms: _396  and  _397
REMARK  161  A    between atoms: _397  and  _398
REMARK  162  A    between atoms: _398  and  _399
REMARK  163  A    between atoms: _403  and  _405
REMARK  164  A    between atoms: _405  and  _406
REMARK  165  A    between atoms: _405  and  _408
REMARK  166  A    between atoms: _408  and  _409
REMARK  167  A    between atoms: _409  and  _410
REMARK  168  A    between atoms: _410  and  _411
REMARK  169  A    between atoms: _411  and  ZN_601
REMARK  170  A    between atoms: _413  and  _415
REMARK  171  A    between atoms: _415  and  _416
REMARK  172  A    between atoms: _418  and  _420
REMARK  173  A    between atoms: _420  and  _421
REMARK  174  A    between atoms: _420  and  _423
REMARK  175  A    between atoms: _423  and  _424
REMARK  176  A    between atoms: _427  and  _429
REMARK  177  A    between atoms: _429  and  _430
REMARK  178  A    between atoms: _429  and  _432
REMARK  179  A    between atoms: _435  and  _437
REMARK  180  A    between atoms: _437  and  _438
REMARK  181  A    between atoms: _437  and  _440
REMARK  182  A    between atoms: _440  and  _441
REMARK  183  A    between atoms: _441  and  _442
REMARK  184  A    between atoms: _445  and  _447
REMARK  185  A    between atoms: _447  and  _448
REMARK  186  A    between atoms: _447  and  _450
REMARK  187  A    between atoms: _450  and  _451
REMARK  188  A    between atoms: _456  and  _458
REMARK  189  A    between atoms: _458  and  _459
REMARK  190  A    between atoms: _458  and  _461
REMARK  191  A    between atoms: _461  and  _462
REMARK  192  A    between atoms: _464  and  _466
REMARK  193  A    between atoms: _466  and  _467
REMARK  194  A    between atoms: _466  and  _469
REMARK  195  A    between atoms: _469  and  _470
REMARK  196  A    between atoms: _470  and  _471
REMARK  197  A    between atoms: _473  and  _475
REMARK  198  A    between atoms: _475  and  _476
REMARK  199  A    between atoms: _475  and  _478
REMARK  200  A    between atoms: _478  and  _479
REMARK  201  A    between atoms: _479  and  _480
REMARK  202  A    between atoms: _483  and  _485
REMARK  203  A    between atoms: _485  and  _486
REMARK  204  A    between atoms: _485  and  _488
REMARK  205  A    between atoms: _488  and  _489
REMARK  206  A    between atoms: _494  and  _496
REMARK  207  A    between atoms: _496  and  _497
REMARK  208  A    between atoms: _496  and  _499
REMARK  209  A    between atoms: _499  and  _500
REMARK  210  A    between atoms: _506  and  _508
REMARK  211  A    between atoms: _508  and  _509
REMARK  212  A    between atoms: _508  and  _511
REMARK  213  A    between atoms: _511  and  _512
REMARK  214  A    between atoms: _517  and  _518
REMARK  215  A    between atoms: _520  and  _522
REMARK  216  A    between atoms: _522  and  _523
REMARK  217  A    between atoms: _522  and  _525
REMARK  218  A    between atoms: _525  and  _526
REMARK  219  A    between atoms: _529  and  _531
REMARK  220  A    between atoms: _531  and  _532
REMARK  221  A    between atoms: _531  and  _534
REMARK  222  A    between atoms: _534  and  _535
REMARK  223  A    between atoms: _540  and  _541
REMARK  224  A    between atoms: _543  and  _545
REMARK  225  A    between atoms: _545  and  _546
REMARK  226  A    between atoms: _545  and  _548
REMARK  227  A    between atoms: _548  and  _549
REMARK  228  A    between atoms: _552  and  _554
REMARK  229  A    between atoms: _554  and  _555
REMARK  230  A    between atoms: _554  and  _557
REMARK  231  A    between atoms: _557  and  _558
REMARK  232  A    between atoms: _558  and  _559
REMARK  233  A    between atoms: _559  and  _560
REMARK  234  A    between atoms: _569  and  _571
REMARK  235  A    between atoms: _571  and  _572
REMARK  236  A    between atoms: _571  and  _574
REMARK  237  A    between atoms: _574  and  _575
REMARK  238  A    between atoms: _575  and  _576
REMARK  239  A    between atoms: _578  and  _580
REMARK  240  A    between atoms: _580  and  _581
REMARK  241  A    between atoms: _580  and  _583
REMARK  242  A    between atoms: _583  and  _584
REMARK  243  A    between atoms: _584  and  _585
REMARK  244  A    between atoms: _590  and  _592
REMARK  245  A    between atoms: _592  and  _593
REMARK  246  A    between atoms: _592  and  _595
REMARK  247  A    between atoms: _595  and  _596
REMARK                            x       y       z     vdW  Elec       q    Type
REMARK                         _______ _______ _______ _____ _____    ______ ____
ROOT
ATOM      1  CB  PHE A   1      30.395   5.537   5.998  0.00  0.00    +0.051 C 
ENDROOT
BRANCH   1   2
ATOM      2  CG  PHE A   1      28.973   5.330   6.506  0.00  0.00    -0.020 A 
ATOM      3  CD2 PHE A   1      28.480   6.081   7.573  0.00  0.00    -0.004 A 
ATOM      4  CE2 PHE A   1      27.179   5.897   8.040  0.00  0.00    -0.000 A 
ATOM      5  CZ  PHE A   1      26.347   4.958   7.432  0.00  0.00    -0.000 A 
ATOM      6  CE1 PHE A   1      26.824   4.203   6.359  0.00  0.00    -0.000 A 
ATOM      7  CD1 PHE A   1      28.132   4.392   5.904  0.00  0.00    -0.004 A 
ENDBRANCH   1   2
BRANCH   1   8
ATOM      8  CA  PHE A   1      30.479   6.403   4.732  0.00  0.00    +0.137 C 
BRANCH   8   9
ATOM      9  N   PHE A   1      31.867   6.642   4.329  0.00  0.00    -0.239 NA
ATOM     10  H   PHE A   1      32.631   6.268   4.928  0.00  0.00    +0.142 HD
ENDBRANCH   8   9
BRANCH   8  11
ATOM     11  C   PHE A   1      29.689   7.698   4.934  0.00  0.00    +0.224 C 
ATOM     12  O   PHE A   1      28.499   7.733   4.658  0.00  0.00    -0.287 OA
ENDBRANCH   8  11
ENDBRANCH   1   8
TORSDOF 4
REMARK  Name = ../refined-set-2016/3ebi/3ebi_pocket.pdb
REMARK  247 active torsions:
REMARK  status: ('A' for Active; 'I' for Inactive)
REMARK    1  A    between atoms: _1  and  _3
REMARK    2  A    between atoms: _3  and  _4
REMARK    3  A    between atoms: _7  and  _9
REMARK    4  A    between atoms: _9  and  _10
REMARK    5  A    between atoms: _9  and  _12
REMARK    6  A    between atoms: _12  and  _13
REMARK    7  A    between atoms: _16  and  _18
REMARK    8  A    between atoms: _18  and  _19
REMARK    9  A    between atoms: _18  and  _21
REMARK   10  A    between atoms: _21  and  _22
REMARK   11  A    between atoms: _25  and  _27
REMARK   12  A    between atoms: _27  and  _28
REMARK   13  A    between atoms: _30  and  _32
REMARK   14  A    between atoms: _32  and  _33
REMARK   15  A    between atoms: _32  and  _35
REMARK   16  A    between atoms: _35  and  _36
REMARK   17  A    between atoms: _36  and  _37
REMARK   18  A    between atoms: _42  and  _44
REMARK   19  A    between atoms: _44  and  _45
REMARK   20  A    between atoms: _44  and  _47
REMARK   21  A    between atoms: _49  and  _51
REMARK   22  A    between atoms: _51  and  _52
REMARK   23  A    between atoms: _51  and  _54
REMARK   24  A    between atoms: _54  and  _55
REMARK   25  A    between atoms: _55  and  _56
REMARK   26  A    between atoms: _59  and  _61
REMARK   27  A    between atoms: _61  and  _62
REMARK   28  A    between atoms: _65  and  _67
REMARK   29  A    between atoms: _67  and  _68
REMARK   30  A    between atoms: _67  and  _70
REMARK   31  A    between atoms: _70  and  _71
REMARK   32  A    between atoms: _74  and  _76
REMARK   33  A    between atoms: _76  and  _77
REMARK   34  A    between atoms: _79  and  _81
REMARK   35  A    between atoms: _81  and  _82
REMARK   36  A    between atoms: _81  and  _84
REMARK   37  A    between atoms: _84  and  _85
REMARK   38  A    between atoms: _90  and  _91
REMARK   39  A    between atoms: _93  and  _95
REMARK   40  A    between atoms: _95  and  _96
REMARK   41  A    between atoms: _95  and  _98
REMARK   42  A    between atoms: _98  and  _99
REMARK   43  A    between atoms: _102  and  _104
REMARK   44  A    between atoms: _104  and  _105
REMARK   45  A    between atoms: _104  and  _107
REMARK   46  A    between atoms: _107  and  _108
REMARK   47  A    between atoms: _114  and  _116
REMARK   48  A    between atoms: _116  and  _117
REMARK   49  A    between atoms: _116  and  _119
REMARK   50  A    between atoms: _119  and  _120
REMARK   51  A    between atoms: _125  and  _127
REMARK   52  A    between atoms: _127  and  _128
REMARK   53  A    between atoms: _127  and  _130
REMARK   54  A    between atoms: _133  and  _135
REMARK   55  A    between atoms: _135  and  _136
REMARK   56  A    between atoms: _138  and  _140
REMARK   57  A    between atoms: _140  and  _141
REMARK   58  A    between atoms: _144  and  _146
REMARK   59  A    between atoms: _146  and  _147
REMARK   60  A    between atoms: _146  and  _149
REMARK   61  A    between atoms: _149  and  _150
REMARK   62  A    between atoms: _150  and  _151
REMARK   63  A    between atoms: _153  and  _155
REMARK   64  A    between atoms: _155  and  _156
REMARK   65  A    between atoms: _155  and  _158
REMARK   66  A    between atoms: _158  and  _159
REMARK   67  A    between atoms: _159  and  _160
REMARK   68  A    between atoms: _163  and  _165
REMARK   69  A    between atoms: _165  and  _166
REMARK   70  A    between atoms: _165  and  _168
REMARK   71  A    between atoms: _168  and  _169
REMARK   72  A    between atoms: _174  and  _176
REMARK   73  A    between atoms: _176  and  _177
REMARK   74  A    between atoms: _176  and  _179
REMARK   75  A    between atoms: _179  and  _180
REMARK   76  A    between atoms: _183  and  _185
REMARK   77  A    between atoms: _185  and  _186
REMARK   78  A    between atoms: _185  and  _188
REMARK   79  A    between atoms: _188  and  _189
REMARK   80  A    between atoms: _195  and  _197
REMARK   81  A    between atoms: _197  and  _198
REMARK   82  A    between atoms: _197  and  _200
REMARK   83  A    between atoms: _200  and  _201
REMARK   84  A    between atoms: _206  and  _208
REMARK   85  A    between atoms: _208  and  _209
REMARK   86  A    between atoms: _208  and  _211
REMARK   87  A    between atoms: _211  and  _212
REMARK   88  A    between atoms: _217  and  _219
REMARK   89  A    between atoms: _219  and  _220
REMARK   90  A    between atoms: _219  and  _222
REMARK   91  A    between atoms: _222  and  _223
REMARK   92  A    between atoms: _225  and  _227
REMARK   93  A    between atoms: _227  and  _228
REMARK   94  A    between atoms: _227  and  _230
REMARK   95  A    between atoms: _230  and  _231
REMARK   96  A    between atoms: _237  and  _239
REMARK   97  A    between atoms: _239  and  _240
REMARK   98  A    between atoms: _243  and  _245
REMARK   99  A    between atoms: _245  and  _246
REMARK  100  A    between atoms: _245  and  _248
REMARK  101  A    between atoms: _248  and  _249
REMARK  102  A    between atoms: _249  and  _250
REMARK  103  A    between atoms: _250  and  _251
REMARK  104  A    between atoms: _260  and  _262
REMARK  105  A    between atoms: _262  and  _263
REMARK  106  A    between atoms: _262  and  _265
REMARK  107  A    between atoms: _265  and  _266
REMARK  108  A    between atoms: _269  and  _271
REMARK  109  A    between atoms: _271  and  _272
REMARK  110  A    between atoms: _271  and  _274
REMARK  111  A    between atoms: _274  and  _275
REMARK  112  A    between atoms: _278  and  _280
REMARK  113  A    between atoms: _280  and  _281
REMARK  114  A    between atoms: _280  and  _283
REMARK  115  A    between atoms: _283  and  _284
REMARK  116  A    between atoms: _287  and  _289
REMARK  117  A    between atoms: _289  and  _290
REMARK  118  A    between atoms: _289  and  _292
REMARK  119  A    between atoms: _295  and  _297
REMARK  120  A    between atoms: _297  and  _298
REMARK  121  A    between atoms: _297  and  _300
REMARK  122  A    between atoms: _303  and  _305
REMARK  123  A    between atoms: _305  and  _306
REMARK  124  A    between atoms: _308  and  _310
REMARK  125  A    between atoms: _310  and  _311
REMARK  126  A    between atoms: _310  and  _313
REMARK  127  A    between atoms: _313  and  _314
REMARK  128  A    between atoms: _318  and  ZN_601
REMARK  129  A    between atoms: _319  and  _321
REMARK  130  A    between atoms: _321  and  _322
REMARK  131  A    between atoms: _321  and  _324
REMARK  132  A    between atoms: _324  and  _325
REMARK  133  A    between atoms: _325  and  _326
REMARK  134  A    between atoms: _329  and  _331
REMARK  135  A    between atoms: _331  and  _332
REMARK  136  A    between atoms: _331  and  _334
REMARK  137  A    between atoms: _334  and  _335
REMARK  138  A    between atoms: _340  and  _341
REMARK  139  A    between atoms: _343  and  _345
REMARK  140  A    between atoms: _345  and  _346
REMARK  141  A    between atoms: _345  and  _348
REMARK  142  A    between atoms: _348  and  _349
REMARK  143  A    between atoms: _353  and  ZN_601
REMARK  144  A    between atoms: _354  and  _356
REMARK  145  A    between atoms: _356  and  _357
REMARK  146  A    between atoms: _356  and  _359
REMARK  147  A    between atoms: _359  and  _360
REMARK  148  A    between atoms: _365  and  _367
REMARK  149  A    between atoms: _367  and  _368
REMARK  150  A    between atoms: _367  and  _370
REMARK  151  A    between atoms: _370  and  _371
REMARK  152  A    between atoms: _381  and  _383
REMARK  153  A    between atoms: _383  and  _384
REMARK  154  A    between atoms: _383  and  _386
REMARK  155  A    between atoms: _386  and  _387
REMARK  156  A    between atoms: _390  and  _392
REMARK  157  A    between atoms: _392  and  _393
REMARK  158  A    between atoms: _392  and  _395
REMARK  159  A    between atoms: _395  and  _396
REMARK  160  A    between atoms: _396  and  _397
REMARK  161  A    between atoms: _397  and  _398
REMARK  162  A    between atoms: _398  and  _399
REMARK  163  A    between atoms: _403  and  _405
REMARK  164  A    between atoms: _405  and  _406
REMARK  165  A    between atoms: _405  and  _408
REMARK  166  A    between atoms: _408  and  _409
REMARK  167  A    between atoms: _409  and  _410
REMARK  168  A    between atoms: _410  and  _411
REMARK  169  A    between atoms: _411  and  ZN_601
REMARK  170  A    between atoms: _413  and  _415
REMARK  171  A    between atoms: _415  and  _416
REMARK  172  A    between atoms: _418  and  _420
REMARK  173  A    between atoms: _420  and  _421
REMARK  174  A    between atoms: _420  and  _423
REMARK  175  A    between atoms: _423  and  _424
REMARK  176  A    between atoms: _427  and  _429
REMARK  177  A    between atoms: _429  and  _430
REMARK  178  A    between atoms: _429  and  _432
REMARK  179  A    between atoms: _435  and  _437
REMARK  180  A    between atoms: _437  and  _438
REMARK  181  A    between atoms: _437  and  _440
REMARK  182  A    between atoms: _440  and  _441
REMARK  183  A    between atoms: _441  and  _442
REMARK  184  A    between atoms: _445  and  _447
REMARK  185  A    between atoms: _447  and  _448
REMARK  186  A    between atoms: _447  and  _450
REMARK  187  A    between atoms: _450  and  _451
REMARK  188  A    between atoms: _456  and  _458
REMARK  189  A    between atoms: _458  and  _459
REMARK  190  A    between atoms: _458  and  _461
REMARK  191  A    between atoms: _461  and  _462
REMARK  192  A    between atoms: _464  and  _466
REMARK  193  A    between atoms: _466  and  _467
REMARK  194  A    between atoms: _466  and  _469
REMARK  195  A    between atoms: _469  and  _470
REMARK  196  A    between atoms: _470  and  _471
REMARK  197  A    between atoms: _473  and  _475
REMARK  198  A    between atoms: _475  and  _476
REMARK  199  A    between atoms: _475  and  _478
REMARK  200  A    between atoms: _478  and  _479
REMARK  201  A    between atoms: _479  and  _480
REMARK  202  A    between atoms: _483  and  _485
REMARK  203  A    between atoms: _485  and  _486
REMARK  204  A    between atoms: _485  and  _488
REMARK  205  A    between atoms: _488  and  _489
REMARK  206  A    between atoms: _494  and  _496
REMARK  207  A    between atoms: _496  and  _497
REMARK  208  A    between atoms: _496  and  _499
REMARK  209  A    between atoms: _499  and  _500
REMARK  210  A    between atoms: _506  and  _508
REMARK  211  A    between atoms: _508  and  _509
REMARK  212  A    between atoms: _508  and  _511
REMARK  213  A    between atoms: _511  and  _512
REMARK  214  A    between atoms: _517  and  _518
REMARK  215  A    between atoms: _520  and  _522
REMARK  216  A    between atoms: _522  and  _523
REMARK  217  A    between atoms: _522  and  _525
REMARK  218  A    between atoms: _525  and  _526
REMARK  219  A    between atoms: _529  and  _531
REMARK  220  A    between atoms: _531  and  _532
REMARK  221  A    between atoms: _531  and  _534
REMARK  222  A    between atoms: _534  and  _535
REMARK  223  A    between atoms: _540  and  _541
REMARK  224  A    between atoms: _543  and  _545
REMARK  225  A    between atoms: _545  and  _546
REMARK  226  A    between atoms: _545  and  _548
REMARK  227  A    between atoms: _548  and  _549
REMARK  228  A    between atoms: _552  and  _554
REMARK  229  A    between atoms: _554  and  _555
REMARK  230  A    between atoms: _554  and  _557
REMARK  231  A    between atoms: _557  and  _558
REMARK  232  A    between atoms: _558  and  _559
REMARK  233  A    between atoms: _559  and  _560
REMARK  234  A    between atoms: _569  and  _571
REMARK  235  A    between atoms: _571  and  _572
REMARK  236  A    between atoms: _571  and  _574
REMARK  237  A    between atoms: _574  and  _575
REMARK  238  A    between atoms: _575  and  _576
REMARK  239  A    between atoms: _578  and  _580
REMARK  240  A    between atoms: _580  and  _581
REMARK  241  A    between atoms: _580  and  _583
REMARK  242  A    between atoms: _583  and  _584
REMARK  243  A    between atoms: _584  and  _585
REMARK  244  A    between atoms: _590  and  _592
REMARK  245  A    between atoms: _592  and  _593
REMARK  246  A    between atoms: _592  and  _595
REMARK  247  A    between atoms: _595  and  _596
REMARK                            x       y       z     vdW  Elec       q    Type
REMARK                         _______ _______ _______ _____ _____    ______ ____
ROOT
ATOM      1  C   GLY A   8      16.120  13.362   1.970  0.00  0.00    +0.000 C 
ATOM      2  N   UNK A   9      16.259  12.500   2.972  0.00  0.00    +0.000 N 
ATOM      3  H   UNK A   9      17.188  12.053   3.111  0.00  0.00    +0.000 HD
ATOM      4  O   GLY A   8      15.065  13.930   1.710  0.00  0.00    +0.000 OA
ENDROOT
BRANCH   2   5
ATOM      5  C   UNK A   9      15.173  12.144   3.894  0.00  0.00    +0.000 C 
BRANCH   5   6
ATOM      6  C   UNK A   9      14.459  13.378   4.472  0.00  0.00    +0.000 C 
ATOM      7  N   GLU A  10      15.239  14.312   5.012  0.00  0.00    +0.000 N 
ATOM      8  H   GLU A  10      16.271  14.180   5.004  0.00  0.00    +0.000 HD
ATOM      9  O   UNK A   9      13.227  13.473   4.438  0.00  0.00    +0.000 OA
BRANCH   7  10
ATOM     10  CA  GLU A  10      14.674  15.524   5.618  0.00  0.00    +0.000 C 
BRANCH  10  11
ATOM     11  C   GLU A  10      13.955  16.386   4.595  0.00  0.00    +0.000 C 
ATOM     12  O   GLU A  10      12.864  16.899   4.869  0.00  0.00    +0.000 OA
ATOM     13  N   TYR A  11      14.559  16.548   3.416  0.00  0.00    +0.000 N 
ATOM     14  H   TYR A  11      15.520  16.178   3.272  0.00  0.00    +0.000 HD
BRANCH  13  15
ATOM     15  CA  TYR A  11      13.878  17.241   2.329  0.00  0.00    +0.000 C 
BRANCH  15  16
ATOM     16  C   TYR A  11      12.555  16.579   1.911  0.00  0.00    +0.000 C 
ATOM     17  O   TYR A  11      11.559  17.267   1.706  0.00  0.00    +0.000 OA
ENDBRANCH  15  16
BRANCH  15  18
ATOM     18  CB  TYR A  11      14.771  17.499   1.098  0.00  0.00    +0.000 C 
BRANCH  18  19
ATOM     19  CG  TYR A  11      13.978  18.251   0.052  0.00  0.00    +0.000 A 
ATOM     20  CD2 TYR A  11      13.639  19.590   0.260  0.00  0.00    +0.000 A 
ATOM     21  CE2 TYR A  11      12.870  20.285  -0.650  0.00  0.00    +0.000 A 
ATOM     22  CZ  TYR A  11      12.406  19.648  -1.787  0.00  0.00    +0.000 A 
ATOM     23  CE1 TYR A  11      12.701  18.301  -2.023  0.00  0.00    +0.000 A 
ATOM     24  CD1 TYR A  11      13.478  17.605  -1.090  0.00  0.00    +0.000 A 
BRANCH  22  25
ATOM     25  OH  TYR A  11      11.647  20.375  -2.669  0.00  0.00    +0.000 OA
ATOM     26  HH  TYR A  11      12.093  20.390  -3.552  0.00  0.00    +0.000 HD
ENDBRANCH  22  25
ENDBRANCH  18  19
ENDBRANCH  15  18
ENDBRANCH  13  15
ENDBRANCH  10  11
BRANCH  10  27
ATOM     27  CB  GLU A  10      15.747  16.349   6.350  0.00  0.00    +0.000 C 
BRANCH  27  28
ATOM     28  CG  GLU A  10      16.471  15.624   7.487  0.00  0.00    +0.000 C 
BRANCH  28  29
ATOM     29  CD  GLU A  10      15.545  14.826   8.410  0.00  0.00    +0.000 C 
ATOM     30  OE2 GLU A  10      15.943  13.707   8.798  0.00  0.00    +0.000 OA
ATOM     31  OE1 GLU A  10      14.442  15.314   8.755  0.00  0.00    +0.000 OA
ENDBRANCH  28  29
ENDBRANCH  27  28
ENDBRANCH  10  27
ENDBRANCH   7  10
ENDBRANCH   5   6
BRANCH   5  32
ATOM     32  C   UNK A   9      15.756  11.310   5.036  0.00  0.00    +0.000 C 
BRANCH  32  33
ATOM     33  C   UNK A   9      14.733  10.766   5.978  0.00  0.00    +0.000 A 
ATOM     34  C   UNK A   9      14.083  11.340   7.016  0.00  0.00    +0.000 A 
ATOM     35  N   UNK A   9      13.246  10.388   7.547  0.00  0.00    +0.000 N 
ATOM     36  C   UNK A   9      13.380   9.269   6.859  0.00  0.00    +0.000 A 
ATOM     37  N   UNK A   9      14.277   9.468   5.909  0.00  0.00    +0.000 NA
BRANCH  35  38
ATOM     38 ZN   UNK A   2      11.921  10.875   9.030  0.00  0.00    +0.000 Zn
BRANCH  38  39
ATOM     39  N   UNK A   2      10.668  12.275   8.220  0.00  0.00    +0.000 N 
ATOM     40  C   UNK A   2       9.421  12.138   7.805  0.00  0.00    +0.000 A 
ATOM     41  N   UNK A   2       9.142  13.139   6.994  0.00  0.00    +0.000 NA
ATOM     42  C   UNK A   2      10.249  13.954   6.869  0.00  0.00    +0.000 A 
ATOM     43  C   UNK A   2      11.207  13.409   7.653  0.00  0.00    +0.000 A 
BRANCH  42  44
ATOM     44  C   UNK A   2      10.242  15.202   6.044  0.00  0.00    +0.000 C 
BRANCH  44  45
ATOM     45  C   UNK A   2       9.523  15.067   4.711  0.00  0.00    +0.000 C 
BRANCH  45  46
ATOM     46  C   UNK A   2       8.668  16.316   4.487  0.00  0.00    +0.000 C 
ATOM     47  O   UNK A   1       7.564  16.416   5.026  0.00  0.00    +0.000 OA
ENDBRANCH  45  46
BRANCH  45  48
ATOM     48  N   UNK A   2      10.495  14.823   3.650  0.00  0.00    +0.000 NA
ATOM     49  H   UNK A   1      11.505  14.798   3.898  0.00  0.00    +0.000 HD
ENDBRANCH  45  48
ENDBRANCH  44  45
ENDBRANCH  42  44
ENDBRANCH  38  39
BRANCH  38  50
ATOM     50  O   UNK A   2      10.482   9.393   9.311  0.00  0.00    +0.000 OA
BRANCH  50  51
ATOM     51  C   UNK A   2       9.702   9.499  10.285  0.00  0.00    +0.000 C 
ATOM     52  O   UNK A   2       9.571  10.555  10.944  0.00  0.00    +0.000 OA
BRANCH  51  53
ATOM     53  C   UNK A   2       8.876   8.299  10.685  0.00  0.00    +0.000 C 
BRANCH  53  54
ATOM     54  C   UNK A   2       8.900   7.175   9.644  0.00  0.00    +0.000 C 
BRANCH  54  55
ATOM     55  C   UNK A   2       8.553   7.618   8.218  0.00  0.00    +0.000 C 
BRANCH  55  56
ATOM     56  C   UNK A   2       8.871   6.519   7.211  0.00  0.00    +0.000 C 
ATOM     57  N   GLY A   3       8.007   5.510   7.126  0.00  0.00    +0.000 N 
ATOM     58  H   GLY A   3       7.242   5.439   7.826  0.00  0.00    +0.000 HD
ATOM     59  O   UNK A   2       9.885   6.590   6.534  0.00  0.00    +0.000 OA
BRANCH  57  60
ATOM     60  CA  GLY A   3       8.105   4.502   6.077  0.00  0.00    +0.000 C 
BRANCH  60  61
ATOM     61  C   GLY A   3       8.111   5.124   4.684  0.00  0.00    +0.000 C 
ATOM     62  O   GLY A   3       8.928   4.768   3.847  0.00  0.00    +0.000 OA
ENDBRANCH  60  61
ENDBRANCH  57  60
ENDBRANCH  55  56
BRANCH  55  63
ATOM     63  N   UNK A   2       7.188   8.166   8.116  0.00  0.00    +0.000 N 
ATOM     64  H   UNK A   2       6.443   7.829   8.759  0.00  0.00    +0.000 HD
ATOM     65  C   UNK A   1       6.909   9.092   7.201  0.00  0.00    +0.000 C 
ATOM     66  O   UNK A   1       7.718   9.432   6.351  0.00  0.00    +0.000 OA
BRANCH  65  67
ATOM     67  C   UNK A   1       5.508   9.727   7.206  0.00  0.00    +0.000 C 
BRANCH  67  68
ATOM     68  N   UNK A   1       4.442   8.807   7.617  0.00  0.00    +0.000 NA
ATOM     69  H   UNK A   1       4.240   8.663   8.627  0.00  0.00    +0.000 HD
ENDBRANCH  67  68
BRANCH  67  70
ATOM     70  C   UNK A   1       5.478  11.064   7.978  0.00  0.00    +0.000 C 
BRANCH  70  71
ATOM     71  C   UNK A   1       5.867  11.016   9.462  0.00  0.00    +0.000 C 
BRANCH  71  72
ATOM     72  C   UNK A   1       5.934  12.446  10.033  0.00  0.00    +0.000 C 
BRANCH  72  73
ATOM     73  C   UNK A   1       6.380  12.481  11.490  0.00  0.00    +0.000 C 
BRANCH  73  74
ATOM     74  N   UNK A   1       7.862  12.623  11.637  0.00  0.00    +0.000 N 
ATOM     75  H   UNK A   1       8.109  12.641  12.647  0.00  0.00    +0.000 HD
ATOM     76  H   UNK A   1       8.170  13.509  11.187  0.00  0.00    +0.000 HD
ATOM     77  H   UNK A   1       8.333  11.817  11.178  0.00  0.00    +0.000 HD
ENDBRANCH  73  74
ENDBRANCH  72  73
ENDBRANCH  71  72
ENDBRANCH  70  71
ENDBRANCH  67  70
ENDBRANCH  65  67
ENDBRANCH  55  63
ENDBRANCH  54  55
ENDBRANCH  53  54
ENDBRANCH  51  53
ENDBRANCH  50  51
ENDBRANCH  38  50
ENDBRANCH  35  38
ENDBRANCH  32  33
ENDBRANCH   5  32
ENDBRANCH   2   5
BRANCH   1  78
ATOM     78  CA  GLY A   8      17.367  13.622   1.145  0.00  0.00    +0.000 C 
BRANCH  78  81
ATOM     79  C   VAL A   7      18.342  15.171   2.752  0.00  0.00    +0.000 C 
ATOM     80  O   VAL A   7      17.314  15.860   2.788  0.00  0.00    +0.000 OA
ATOM     81  N   GLY A   8      18.470  14.101   1.967  0.00  0.00    +0.000 N 
ATOM     82  H   GLY A   8      19.379  13.596   1.941  0.00  0.00    +0.000 HD
BRANCH  79  83
ATOM     83  CA  VAL A   7      19.548  15.511   3.643  0.00  0.00    +0.000 C 
BRANCH  83  86
ATOM     84  C   VAL A   6      19.248  13.561   5.126  0.00  0.00    +0.000 C 
ATOM     85  O   VAL A   6      18.088  13.886   5.424  0.00  0.00    +0.000 OA
ATOM     86  N   VAL A   7      20.042  14.304   4.341  0.00  0.00    +0.000 N 
ATOM     87  H   VAL A   7      21.036  14.023   4.219  0.00  0.00    +0.000 HD
BRANCH  84  88
ATOM     88  CA  VAL A   6      19.817  12.230   5.634  0.00  0.00    +0.000 C 
BRANCH  88  90
ATOM     89  C   THR A   5      19.717  10.838   3.632  0.00  0.00    +0.000 C 
ATOM     90  N   VAL A   6      20.449  11.464   4.552  0.00  0.00    +0.000 N 
ATOM     91  H   VAL A   6      21.486  11.409   4.503  0.00  0.00    +0.000 HD
ATOM     92  O   THR A   5      18.496  10.953   3.557  0.00  0.00    +0.000 OA
BRANCH  89  93
ATOM     93  CA  THR A   5      20.459   9.953   2.618  0.00  0.00    +0.000 C 
BRANCH  93  95
ATOM     94  C   LEU A   4      21.681  11.649   1.354  0.00  0.00    +0.000 C 
ATOM     95  N   THR A   5      21.703  10.538   2.093  0.00  0.00    +0.000 N 
ATOM     96  H   THR A   5      22.613  10.079   2.301  0.00  0.00    +0.000 HD
ATOM     97  O   LEU A   4      20.641  12.264   1.090  0.00  0.00    +0.000 OA
BRANCH  94  98
ATOM     98  CA  LEU A   4      23.034  12.177   0.863  0.00  0.00    +0.000 C 
BRANCH  98 101
ATOM     99  C   GLY A   3      23.666  12.945   3.079  0.00  0.00    +0.000 C 
ATOM    100  O   GLY A   3      22.592  13.543   3.215  0.00  0.00    +0.000 OA
ATOM    101  N   LEU A   4      23.984  12.288   1.968  0.00  0.00    +0.000 N 
ATOM    102  H   LEU A   4      24.922  11.847   1.884  0.00  0.00    +0.000 HD
BRANCH  99 103
ATOM    103  CA  GLY A   3      24.692  12.911   4.216  0.00  0.00    +0.000 C 
BRANCH 103 106
ATOM    104  C   UNK A   2      24.392  10.555   4.843  0.00  0.00    +0.000 C 
ATOM    105  O   UNK A   2      23.206  10.720   5.102  0.00  0.00    +0.000 OA
ATOM    106  N   GLY A   3      25.194  11.546   4.446  0.00  0.00    +0.000 N 
ATOM    107  H   GLY A   3      26.204  11.348   4.295  0.00  0.00    +0.000 HD
BRANCH 104 108
ATOM    108  C   UNK A   2      25.018   9.158   4.987  0.00  0.00    +0.000 C 
BRANCH 108 110
ATOM    109  C   UNK A   1      25.333   8.697   2.597  0.00  0.00    +0.000 C 
ATOM    110  N   UNK A   2      25.832   8.780   3.828  0.00  0.00    +0.000 N 
ATOM    111  H   UNK A   2      26.840   8.568   3.973  0.00  0.00    +0.000 HD
ATOM    112  O   UNK A   1      24.160   8.926   2.339  0.00  0.00    +0.000 OA
BRANCH 109 113
ATOM    113  C   UNK A   1      26.307   8.315   1.485  0.00  0.00    +0.000 C 
ATOM    114  C   UNK A   1      26.450   6.803   1.388  0.00  0.00    +0.000 C 
BRANCH 113 115
ATOM    115  N   UNK A   1      27.612   8.959   1.667  0.00  0.00    +0.000 NA
ATOM    116  H   UNK A   1      28.447   8.370   1.857  0.00  0.00    +0.000 HD
ENDBRANCH 113 115
ENDBRANCH 109 113
ENDBRANCH 108 110
BRANCH 108 117
ATOM    117  C   UNK A   2      25.850   9.064   6.273  0.00  0.00    +0.000 C 
BRANCH 117 118
ATOM    118  C   UNK A   2      25.161   9.567   7.535  0.00  0.00    +0.000 C 
BRANCH 118 119
ATOM    119  C   UNK A   2      24.043   8.627   7.936  0.00  0.00    +0.000 C 
BRANCH 119 120
ATOM    120  N   UNK A   2      23.356   9.062   9.147  0.00  0.00    +0.330 N 
ATOM    121  C   UNK A   2      22.458   8.332   9.803  0.00  0.00    +0.000 C 
ATOM    122  N   UNK A   2      21.873   8.815  10.886  0.00  0.00    +0.330 N 
ATOM    123  H   UNK A   2      21.171   8.242  11.397  0.00  0.00    +0.000 HD
ATOM    124  H   UNK A   2      22.115   9.767  11.227  0.00  0.00    +0.000 HD
ATOM    125  N   UNK A   2      22.147   7.120   9.375  0.00  0.00    +0.330 N 
ATOM    126  H   UNK A   2      21.445   6.551   9.890  0.00  0.00    +0.000 HD
ATOM    127  H   UNK A   2      22.605   6.736   8.524  0.00  0.00    +0.000 HD
ATOM    128  H   UNK A   2      23.583  10.005   9.522  0.00  0.00    +0.000 HD
ENDBRANCH 119 120
ENDBRANCH 118 119
ENDBRANCH 117 118
ENDBRANCH 108 117
ENDBRANCH 104 108
ENDBRANCH 103 106
BRANCH 103 129
ATOM    129  CB  GLY A   3      25.858  13.925   3.987  0.00  0.00    +0.000 C 
ATOM    130  CG2 GLY A   3      25.329  15.298   3.527  0.00  0.00    +0.000 C 
BRANCH 129 131
ATOM    131  CG1 GLY A   3      26.670  14.055   5.278  0.00  0.00    +0.000 C 
ATOM    132  CD1 GLY A   3      28.012  14.658   5.108  0.00  0.00    +0.000 C 
ENDBRANCH 129 131
ENDBRANCH 103 129
ENDBRANCH  99 103
ENDBRANCH  98 101
BRANCH  98 133
ATOM    133  CB  LEU A   4      23.600  11.318  -0.289  0.00  0.00    +0.000 C 
BRANCH 133 134
ATOM    134  CG  LEU A   4      22.759  11.157  -1.566  0.00  0.00    +0.000 C 
ATOM    135  CD2 LEU A   4      22.738  12.441  -2.373  0.00  0.00    +0.000 C 
ATOM    136  CD1 LEU A   4      23.310  10.016  -2.417  0.00  0.00    +0.000 C 
ENDBRANCH 133 134
ENDBRANCH  98 133
ENDBRANCH  94  98
ENDBRANCH  93  95
BRANCH  93 137
ATOM    137  CB  THR A   5      20.625   8.518   3.229  0.00  0.00    +0.000 C 
ATOM    138  CG2 THR A   5      21.421   7.617   2.335  0.00  0.00    +0.000 C 
BRANCH 137 139
ATOM    139  OG1 THR A   5      21.235   8.588   4.514  0.00  0.00    +0.000 OA
ATOM    140  HG1 THR A   5      22.128   9.007   4.432  0.00  0.00    +0.000 HD
ENDBRANCH 137 139
ENDBRANCH  93 137
ENDBRANCH  89  93
ENDBRANCH  88  90
BRANCH  88 141
ATOM    141  CB  VAL A   6      20.730  12.378   6.876  0.00  0.00    +0.000 C 
ATOM    142  CG2 VAL A   6      20.085  13.278   7.931  0.00  0.00    +0.000 C 
ATOM    143  CG1 VAL A   6      20.999  10.989   7.507  0.00  0.00    +0.000 C 
ENDBRANCH  88 141
ENDBRANCH  84  88
ENDBRANCH  83  86
BRANCH  83 144
ATOM    144  CB  VAL A   7      20.676  16.229   2.831  0.00  0.00    +0.000 C 
ATOM    145  CG2 VAL A   7      21.791  16.690   3.757  0.00  0.00    +0.000 C 
ATOM    146  CG1 VAL A   7      20.138  17.410   2.047  0.00  0.00    +0.000 C 
ENDBRANCH  83 144
ENDBRANCH  79  83
ENDBRANCH  78  81
ENDBRANCH   1  78
TORSDOF 64
REMARK  Name = ../refined-set-2016/3ebi/3ebi_pocket.pdb
REMARK  247 active torsions:
REMARK  status: ('A' for Active; 'I' for Inactive)
REMARK    1  A    between atoms: _1  and  _3
REMARK    2  A    between atoms: _3  and  _4
REMARK    3  A    between atoms: _7  and  _9
REMARK    4  A    between atoms: _9  and  _10
REMARK    5  A    between atoms: _9  and  _12
REMARK    6  A    between atoms: _12  and  _13
REMARK    7  A    between atoms: _16  and  _18
REMARK    8  A    between atoms: _18  and  _19
REMARK    9  A    between atoms: _18  and  _21
REMARK   10  A    between atoms: _21  and  _22
REMARK   11  A    between atoms: _25  and  _27
REMARK   12  A    between atoms: _27  and  _28
REMARK   13  A    between atoms: _30  and  _32
REMARK   14  A    between atoms: _32  and  _33
REMARK   15  A    between atoms: _32  and  _35
REMARK   16  A    between atoms: _35  and  _36
REMARK   17  A    between atoms: _36  and  _37
REMARK   18  A    between atoms: _42  and  _44
REMARK   19  A    between atoms: _44  and  _45
REMARK   20  A    between atoms: _44  and  _47
REMARK   21  A    between atoms: _49  and  _51
REMARK   22  A    between atoms: _51  and  _52
REMARK   23  A    between atoms: _51  and  _54
REMARK   24  A    between atoms: _54  and  _55
REMARK   25  A    between atoms: _55  and  _56
REMARK   26  A    between atoms: _59  and  _61
REMARK   27  A    between atoms: _61  and  _62
REMARK   28  A    between atoms: _65  and  _67
REMARK   29  A    between atoms: _67  and  _68
REMARK   30  A    between atoms: _67  and  _70
REMARK   31  A    between atoms: _70  and  _71
REMARK   32  A    between atoms: _74  and  _76
REMARK   33  A    between atoms: _76  and  _77
REMARK   34  A    between atoms: _79  and  _81
REMARK   35  A    between atoms: _81  and  _82
REMARK   36  A    between atoms: _81  and  _84
REMARK   37  A    between atoms: _84  and  _85
REMARK   38  A    between atoms: _90  and  _91
REMARK   39  A    between atoms: _93  and  _95
REMARK   40  A    between atoms: _95  and  _96
REMARK   41  A    between atoms: _95  and  _98
REMARK   42  A    between atoms: _98  and  _99
REMARK   43  A    between atoms: _102  and  _104
REMARK   44  A    between atoms: _104  and  _105
REMARK   45  A    between atoms: _104  and  _107
REMARK   46  A    between atoms: _107  and  _108
REMARK   47  A    between atoms: _114  and  _116
REMARK   48  A    between atoms: _116  and  _117
REMARK   49  A    between atoms: _116  and  _119
REMARK   50  A    between atoms: _119  and  _120
REMARK   51  A    between atoms: _125  and  _127
REMARK   52  A    between atoms: _127  and  _128
REMARK   53  A    between atoms: _127  and  _130
REMARK   54  A    between atoms: _133  and  _135
REMARK   55  A    between atoms: _135  and  _136
REMARK   56  A    between atoms: _138  and  _140
REMARK   57  A    between atoms: _140  and  _141
REMARK   58  A    between atoms: _144  and  _146
REMARK   59  A    between atoms: _146  and  _147
REMARK   60  A    between atoms: _146  and  _149
REMARK   61  A    between atoms: _149  and  _150
REMARK   62  A    between atoms: _150  and  _151
REMARK   63  A    between atoms: _153  and  _155
REMARK   64  A    between atoms: _155  and  _156
REMARK   65  A    between atoms: _155  and  _158
REMARK   66  A    between atoms: _158  and  _159
REMARK   67  A    between atoms: _159  and  _160
REMARK   68  A    between atoms: _163  and  _165
REMARK   69  A    between atoms: _165  and  _166
REMARK   70  A    between atoms: _165  and  _168
REMARK   71  A    between atoms: _168  and  _169
REMARK   72  A    between atoms: _174  and  _176
REMARK   73  A    between atoms: _176  and  _177
REMARK   74  A    between atoms: _176  and  _179
REMARK   75  A    between atoms: _179  and  _180
REMARK   76  A    between atoms: _183  and  _185
REMARK   77  A    between atoms: _185  and  _186
REMARK   78  A    between atoms: _185  and  _188
REMARK   79  A    between atoms: _188  and  _189
REMARK   80  A    between atoms: _195  and  _197
REMARK   81  A    between atoms: _197  and  _198
REMARK   82  A    between atoms: _197  and  _200
REMARK   83  A    between atoms: _200  and  _201
REMARK   84  A    between atoms: _206  and  _208
REMARK   85  A    between atoms: _208  and  _209
REMARK   86  A    between atoms: _208  and  _211
REMARK   87  A    between atoms: _211  and  _212
REMARK   88  A    between atoms: _217  and  _219
REMARK   89  A    between atoms: _219  and  _220
REMARK   90  A    between atoms: _219  and  _222
REMARK   91  A    between atoms: _222  and  _223
REMARK   92  A    between atoms: _225  and  _227
REMARK   93  A    between atoms: _227  and  _228
REMARK   94  A    between atoms: _227  and  _230
REMARK   95  A    between atoms: _230  and  _231
REMARK   96  A    between atoms: _237  and  _239
REMARK   97  A    between atoms: _239  and  _240
REMARK   98  A    between atoms: _243  and  _245
REMARK   99  A    between atoms: _245  and  _246
REMARK  100  A    between atoms: _245  and  _248
REMARK  101  A    between atoms: _248  and  _249
REMARK  102  A    between atoms: _249  and  _250
REMARK  103  A    between atoms: _250  and  _251
REMARK  104  A    between atoms: _260  and  _262
REMARK  105  A    between atoms: _262  and  _263
REMARK  106  A    between atoms: _262  and  _265
REMARK  107  A    between atoms: _265  and  _266
REMARK  108  A    between atoms: _269  and  _271
REMARK  109  A    between atoms: _271  and  _272
REMARK  110  A    between atoms: _271  and  _274
REMARK  111  A    between atoms: _274  and  _275
REMARK  112  A    between atoms: _278  and  _280
REMARK  113  A    between atoms: _280  and  _281
REMARK  114  A    between atoms: _280  and  _283
REMARK  115  A    between atoms: _283  and  _284
REMARK  116  A    between atoms: _287  and  _289
REMARK  117  A    between atoms: _289  and  _290
REMARK  118  A    between atoms: _289  and  _292
REMARK  119  A    between atoms: _295  and  _297
REMARK  120  A    between atoms: _297  and  _298
REMARK  121  A    between atoms: _297  and  _300
REMARK  122  A    between atoms: _303  and  _305
REMARK  123  A    between atoms: _305  and  _306
REMARK  124  A    between atoms: _308  and  _310
REMARK  125  A    between atoms: _310  and  _311
REMARK  126  A    between atoms: _310  and  _313
REMARK  127  A    between atoms: _313  and  _314
REMARK  128  A    between atoms: _318  and  ZN_601
REMARK  129  A    between atoms: _319  and  _321
REMARK  130  A    between atoms: _321  and  _322
REMARK  131  A    between atoms: _321  and  _324
REMARK  132  A    between atoms: _324  and  _325
REMARK  133  A    between atoms: _325  and  _326
REMARK  134  A    between atoms: _329  and  _331
REMARK  135  A    between atoms: _331  and  _332
REMARK  136  A    between atoms: _331  and  _334
REMARK  137  A    between atoms: _334  and  _335
REMARK  138  A    between atoms: _340  and  _341
REMARK  139  A    between atoms: _343  and  _345
REMARK  140  A    between atoms: _345  and  _346
REMARK  141  A    between atoms: _345  and  _348
REMARK  142  A    between atoms: _348  and  _349
REMARK  143  A    between atoms: _353  and  ZN_601
REMARK  144  A    between atoms: _354  and  _356
REMARK  145  A    between atoms: _356  and  _357
REMARK  146  A    between atoms: _356  and  _359
REMARK  147  A    between atoms: _359  and  _360
REMARK  148  A    between atoms: _365  and  _367
REMARK  149  A    between atoms: _367  and  _368
REMARK  150  A    between atoms: _367  and  _370
REMARK  151  A    between atoms: _370  and  _371
REMARK  152  A    between atoms: _381  and  _383
REMARK  153  A    between atoms: _383  and  _384
REMARK  154  A    between atoms: _383  and  _386
REMARK  155  A    between atoms: _386  and  _387
REMARK  156  A    between atoms: _390  and  _392
REMARK  157  A    between atoms: _392  and  _393
REMARK  158  A    between atoms: _392  and  _395
REMARK  159  A    between atoms: _395  and  _396
REMARK  160  A    between atoms: _396  and  _397
REMARK  161  A    between atoms: _397  and  _398
REMARK  162  A    between atoms: _398  and  _399
REMARK  163  A    between atoms: _403  and  _405
REMARK  164  A    between atoms: _405  and  _406
REMARK  165  A    between atoms: _405  and  _408
REMARK  166  A    between atoms: _408  and  _409
REMARK  167  A    between atoms: _409  and  _410
REMARK  168  A    between atoms: _410  and  _411
REMARK  169  A    between atoms: _411  and  ZN_601
REMARK  170  A    between atoms: _413  and  _415
REMARK  171  A    between atoms: _415  and  _416
REMARK  172  A    between atoms: _418  and  _420
REMARK  173  A    between atoms: _420  and  _421
REMARK  174  A    between atoms: _420  and  _423
REMARK  175  A    between atoms: _423  and  _424
REMARK  176  A    between atoms: _427  and  _429
REMARK  177  A    between atoms: _429  and  _430
REMARK  178  A    between atoms: _429  and  _432
REMARK  179  A    between atoms: _435  and  _437
REMARK  180  A    between atoms: _437  and  _438
REMARK  181  A    between atoms: _437  and  _440
REMARK  182  A    between atoms: _440  and  _441
REMARK  183  A    between atoms: _441  and  _442
REMARK  184  A    between atoms: _445  and  _447
REMARK  185  A    between atoms: _447  and  _448
REMARK  186  A    between atoms: _447  and  _450
REMARK  187  A    between atoms: _450  and  _451
REMARK  188  A    between atoms: _456  and  _458
REMARK  189  A    between atoms: _458  and  _459
REMARK  190  A    between atoms: _458  and  _461
REMARK  191  A    between atoms: _461  and  _462
REMARK  192  A    between atoms: _464  and  _466
REMARK  193  A    between atoms: _466  and  _467
REMARK  194  A    between atoms: _466  and  _469
REMARK  195  A    between atoms: _469  and  _470
REMARK  196  A    between atoms: _470  and  _471
REMARK  197  A    between atoms: _473  and  _475
REMARK  198  A    between atoms: _475  and  _476
REMARK  199  A    between atoms: _475  and  _478
REMARK  200  A    between atoms: _478  and  _479
REMARK  201  A    between atoms: _479  and  _480
REMARK  202  A    between atoms: _483  and  _485
REMARK  203  A    between atoms: _485  and  _486
REMARK  204  A    between atoms: _485  and  _488
REMARK  205  A    between atoms: _488  and  _489
REMARK  206  A    between atoms: _494  and  _496
REMARK  207  A    between atoms: _496  and  _497
REMARK  208  A    between atoms: _496  and  _499
REMARK  209  A    between atoms: _499  and  _500
REMARK  210  A    between atoms: _506  and  _508
REMARK  211  A    between atoms: _508  and  _509
REMARK  212  A    between atoms: _508  and  _511
REMARK  213  A    between atoms: _511  and  _512
REMARK  214  A    between atoms: _517  and  _518
REMARK  215  A    between atoms: _520  and  _522
REMARK  216  A    between atoms: _522  and  _523
REMARK  217  A    between atoms: _522  and  _525
REMARK  218  A    between atoms: _525  and  _526
REMARK  219  A    between atoms: _529  and  _531
REMARK  220  A    between atoms: _531  and  _532
REMARK  221  A    between atoms: _531  and  _534
REMARK  222  A    between atoms: _534  and  _535
REMARK  223  A    between atoms: _540  and  _541
REMARK  224  A    between atoms: _543  and  _545
REMARK  225  A    between atoms: _545  and  _546
REMARK  226  A    between atoms: _545  and  _548
REMARK  227  A    between atoms: _548  and  _549
REMARK  228  A    between atoms: _552  and  _554
REMARK  229  A    between atoms: _554  and  _555
REMARK  230  A    between atoms: _554  and  _557
REMARK  231  A    between atoms: _557  and  _558
REMARK  232  A    between atoms: _558  and  _559
REMARK  233  A    between atoms: _559  and  _560
REMARK  234  A    between atoms: _569  and  _571
REMARK  235  A    between atoms: _571  and  _572
REMARK  236  A    between atoms: _571  and  _574
REMARK  237  A    between atoms: _574  and  _575
REMARK  238  A    between atoms: _575  and  _576
REMARK  239  A    between atoms: _578  and  _580
REMARK  240  A    between atoms: _580  and  _581
REMARK  241  A    between atoms: _580  and  _583
REMARK  242  A    between atoms: _583  and  _584
REMARK  243  A    between atoms: _584  and  _585
REMARK  244  A    between atoms: _590  and  _592
REMARK  245  A    between atoms: _592  and  _593
REMARK  246  A    between atoms: _592  and  _595
REMARK  247  A    between atoms: _595  and  _596
REMARK                            x       y       z     vdW  Elec       q    Type
REMARK                         _______ _______ _______ _____ _____    ______ ____
ROOT
ATOM      1  CB  ASN A   1       6.339  19.365   6.390  0.00  0.00    +0.110 C 
ENDROOT
BRANCH   1   2
ATOM      2  CG  ASN A   1       7.550  18.970   7.226  0.00  0.00    +0.221 C 
ATOM      3  OD1 ASN A   1       7.472  18.085   8.078  0.00  0.00    -0.275 OA
ATOM      4  ND2 ASN A   1       8.675  19.644   6.995  0.00  0.00    -0.329 N 
ATOM      5 HD21 ASN A   1       9.532  19.430   7.544  0.00  0.00    +0.145 HD
ATOM      6 HD22 ASN A   1       8.697  20.385   6.265  0.00  0.00    +0.145 HD
ENDBRANCH   1   2
BRANCH   1   7
ATOM      7  CA  ASN A   1       5.087  18.540   6.726  0.00  0.00    +0.142 C 
BRANCH   7   8
ATOM      8  N   ASN A   1       5.295  17.109   6.456  0.00  0.00    -0.239 NA
ATOM      9  H   ASN A   1       5.819  16.829   5.603  0.00  0.00    +0.142 HD
ENDBRANCH   7   8
BRANCH   7  10
ATOM     10  C   ASN A   1       3.858  19.128   6.037  0.00  0.00    +0.225 C 
ATOM     11  O   ASN A   1       3.043  19.789   6.678  0.00  0.00    -0.287 OA
ENDBRANCH   7  10
ENDBRANCH   1   7
TORSDOF 4
REMARK  Name = ../refined-set-2016/3ebi/3ebi_pocket.pdb
REMARK  247 active torsions:
REMARK  status: ('A' for Active; 'I' for Inactive)
REMARK    1  A    between atoms: _1  and  _3
REMARK    2  A    between atoms: _3  and  _4
REMARK    3  A    between atoms: _7  and  _9
REMARK    4  A    between atoms: _9  and  _10
REMARK    5  A    between atoms: _9  and  _12
REMARK    6  A    between atoms: _12  and  _13
REMARK    7  A    between atoms: _16  and  _18
REMARK    8  A    between atoms: _18  and  _19
REMARK    9  A    between atoms: _18  and  _21
REMARK   10  A    between atoms: _21  and  _22
REMARK   11  A    between atoms: _25  and  _27
REMARK   12  A    between atoms: _27  and  _28
REMARK   13  A    between atoms: _30  and  _32
REMARK   14  A    between atoms: _32  and  _33
REMARK   15  A    between atoms: _32  and  _35
REMARK   16  A    between atoms: _35  and  _36
REMARK   17  A    between atoms: _36  and  _37
REMARK   18  A    between atoms: _42  and  _44
REMARK   19  A    between atoms: _44  and  _45
REMARK   20  A    between atoms: _44  and  _47
REMARK   21  A    between atoms: _49  and  _51
REMARK   22  A    between atoms: _51  and  _52
REMARK   23  A    between atoms: _51  and  _54
REMARK   24  A    between atoms: _54  and  _55
REMARK   25  A    between atoms: _55  and  _56
REMARK   26  A    between atoms: _59  and  _61
REMARK   27  A    between atoms: _61  and  _62
REMARK   28  A    between atoms: _65  and  _67
REMARK   29  A    between atoms: _67  and  _68
REMARK   30  A    between atoms: _67  and  _70
REMARK   31  A    between atoms: _70  and  _71
REMARK   32  A    between atoms: _74  and  _76
REMARK   33  A    between atoms: _76  and  _77
REMARK   34  A    between atoms: _79  and  _81
REMARK   35  A    between atoms: _81  and  _82
REMARK   36  A    between atoms: _81  and  _84
REMARK   37  A    between atoms: _84  and  _85
REMARK   38  A    between atoms: _90  and  _91
REMARK   39  A    between atoms: _93  and  _95
REMARK   40  A    between atoms: _95  and  _96
REMARK   41  A    between atoms: _95  and  _98
REMARK   42  A    between atoms: _98  and  _99
REMARK   43  A    between atoms: _102  and  _104
REMARK   44  A    between atoms: _104  and  _105
REMARK   45  A    between atoms: _104  and  _107
REMARK   46  A    between atoms: _107  and  _108
REMARK   47  A    between atoms: _114  and  _116
REMARK   48  A    between atoms: _116  and  _117
REMARK   49  A    between atoms: _116  and  _119
REMARK   50  A    between atoms: _119  and  _120
REMARK   51  A    between atoms: _125  and  _127
REMARK   52  A    between atoms: _127  and  _128
REMARK   53  A    between atoms: _127  and  _130
REMARK   54  A    between atoms: _133  and  _135
REMARK   55  A    between atoms: _135  and  _136
REMARK   56  A    between atoms: _138  and  _140
REMARK   57  A    between atoms: _140  and  _141
REMARK   58  A    between atoms: _144  and  _146
REMARK   59  A    between atoms: _146  and  _147
REMARK   60  A    between atoms: _146  and  _149
REMARK   61  A    between atoms: _149  and  _150
REMARK   62  A    between atoms: _150  and  _151
REMARK   63  A    between atoms: _153  and  _155
REMARK   64  A    between atoms: _155  and  _156
REMARK   65  A    between atoms: _155  and  _158
REMARK   66  A    between atoms: _158  and  _159
REMARK   67  A    between atoms: _159  and  _160
REMARK   68  A    between atoms: _163  and  _165
REMARK   69  A    between atoms: _165  and  _166
REMARK   70  A    between atoms: _165  and  _168
REMARK   71  A    between atoms: _168  and  _169
REMARK   72  A    between atoms: _174  and  _176
REMARK   73  A    between atoms: _176  and  _177
REMARK   74  A    between atoms: _176  and  _179
REMARK   75  A    between atoms: _179  and  _180
REMARK   76  A    between atoms: _183  and  _185
REMARK   77  A    between atoms: _185  and  _186
REMARK   78  A    between atoms: _185  and  _188
REMARK   79  A    between atoms: _188  and  _189
REMARK   80  A    between atoms: _195  and  _197
REMARK   81  A    between atoms: _197  and  _198
REMARK   82  A    between atoms: _197  and  _200
REMARK   83  A    between atoms: _200  and  _201
REMARK   84  A    between atoms: _206  and  _208
REMARK   85  A    between atoms: _208  and  _209
REMARK   86  A    between atoms: _208  and  _211
REMARK   87  A    between atoms: _211  and  _212
REMARK   88  A    between atoms: _217  and  _219
REMARK   89  A    between atoms: _219  and  _220
REMARK   90  A    between atoms: _219  and  _222
REMARK   91  A    between atoms: _222  and  _223
REMARK   92  A    between atoms: _225  and  _227
REMARK   93  A    between atoms: _227  and  _228
REMARK   94  A    between atoms: _227  and  _230
REMARK   95  A    between atoms: _230  and  _231
REMARK   96  A    between atoms: _237  and  _239
REMARK   97  A    between atoms: _239  and  _240
REMARK   98  A    between atoms: _243  and  _245
REMARK   99  A    between atoms: _245  and  _246
REMARK  100  A    between atoms: _245  and  _248
REMARK  101  A    between atoms: _248  and  _249
REMARK  102  A    between atoms: _249  and  _250
REMARK  103  A    between atoms: _250  and  _251
REMARK  104  A    between atoms: _260  and  _262
REMARK  105  A    between atoms: _262  and  _263
REMARK  106  A    between atoms: _262  and  _265
REMARK  107  A    between atoms: _265  and  _266
REMARK  108  A    between atoms: _269  and  _271
REMARK  109  A    between atoms: _271  and  _272
REMARK  110  A    between atoms: _271  and  _274
REMARK  111  A    between atoms: _274  and  _275
REMARK  112  A    between atoms: _278  and  _280
REMARK  113  A    between atoms: _280  and  _281
REMARK  114  A    between atoms: _280  and  _283
REMARK  115  A    between atoms: _283  and  _284
REMARK  116  A    between atoms: _287  and  _289
REMARK  117  A    between atoms: _289  and  _290
REMARK  118  A    between atoms: _289  and  _292
REMARK  119  A    between atoms: _295  and  _297
REMARK  120  A    between atoms: _297  and  _298
REMARK  121  A    between atoms: _297  and  _300
REMARK  122  A    between atoms: _303  and  _305
REMARK  123  A    between atoms: _305  and  _306
REMARK  124  A    between atoms: _308  and  _310
REMARK  125  A    between atoms: _310  and  _311
REMARK  126  A    between atoms: _310  and  _313
REMARK  127  A    between atoms: _313  and  _314
REMARK  128  A    between atoms: _318  and  ZN_601
REMARK  129  A    between atoms: _319  and  _321
REMARK  130  A    between atoms: _321  and  _322
REMARK  131  A    between atoms: _321  and  _324
REMARK  132  A    between atoms: _324  and  _325
REMARK  133  A    between atoms: _325  and  _326
REMARK  134  A    between atoms: _329  and  _331
REMARK  135  A    between atoms: _331  and  _332
REMARK  136  A    between atoms: _331  and  _334
REMARK  137  A    between atoms: _334  and  _335
REMARK  138  A    between atoms: _340  and  _341
REMARK  139  A    between atoms: _343  and  _345
REMARK  140  A    between atoms: _345  and  _346
REMARK  141  A    between atoms: _345  and  _348
REMARK  142  A    between atoms: _348  and  _349
REMARK  143  A    between atoms: _353  and  ZN_601
REMARK  144  A    between atoms: _354  and  _356
REMARK  145  A    between atoms: _356  and  _357
REMARK  146  A    between atoms: _356  and  _359
REMARK  147  A    between atoms: _359  and  _360
REMARK  148  A    between atoms: _365  and  _367
REMARK  149  A    between atoms: _367  and  _368
REMARK  150  A    between atoms: _367  and  _370
REMARK  151  A    between atoms: _370  and  _371
REMARK  152  A    between atoms: _381  and  _383
REMARK  153  A    between atoms: _383  and  _384
REMARK  154  A    between atoms: _383  and  _386
REMARK  155  A    between atoms: _386  and  _387
REMARK  156  A    between atoms: _390  and  _392
REMARK  157  A    between atoms: _392  and  _393
REMARK  158  A    between atoms: _392  and  _395
REMARK  159  A    between atoms: _395  and  _396
REMARK  160  A    between atoms: _396  and  _397
REMARK  161  A    between atoms: _397  and  _398
REMARK  162  A    between atoms: _398  and  _399
REMARK  163  A    between atoms: _403  and  _405
REMARK  164  A    between atoms: _405  and  _406
REMARK  165  A    between atoms: _405  and  _408
REMARK  166  A    between atoms: _408  and  _409
REMARK  167  A    between atoms: _409  and  _410
REMARK  168  A    between atoms: _410  and  _411
REMARK  169  A    between atoms: _411  and  ZN_601
REMARK  170  A    between atoms: _413  and  _415
REMARK  171  A    between atoms: _415  and  _416
REMARK  172  A    between atoms: _418  and  _420
REMARK  173  A    between atoms: _420  and  _421
REMARK  174  A    between atoms: _420  and  _423
REMARK  175  A    between atoms: _423  and  _424
REMARK  176  A    between atoms: _427  and  _429
REMARK  177  A    between atoms: _429  and  _430
REMARK  178  A    between atoms: _429  and  _432
REMARK  179  A    between atoms: _435  and  _437
REMARK  180  A    between atoms: _437  and  _438
REMARK  181  A    between atoms: _437  and  _440
REMARK  182  A    between atoms: _440  and  _441
REMARK  183  A    between atoms: _441  and  _442
REMARK  184  A    between atoms: _445  and  _447
REMARK  185  A    between atoms: _447  and  _448
REMARK  186  A    between atoms: _447  and  _450
REMARK  187  A    between atoms: _450  and  _451
REMARK  188  A    between atoms: _456  and  _458
REMARK  189  A    between atoms: _458  and  _459
REMARK  190  A    between atoms: _458  and  _461
REMARK  191  A    between atoms: _461  and  _462
REMARK  192  A    between atoms: _464  and  _466
REMARK  193  A    between atoms: _466  and  _467
REMARK  194  A    between atoms: _466  and  _469
REMARK  195  A    between atoms: _469  and  _470
REMARK  196  A    between atoms: _470  and  _471
REMARK  197  A    between atoms: _473  and  _475
REMARK  198  A    between atoms: _475  and  _476
REMARK  199  A    between atoms: _475  and  _478
REMARK  200  A    between atoms: _478  and  _479
REMARK  201  A    between atoms: _479  and  _480
REMARK  202  A    between atoms: _483  and  _485
REMARK  203  A    between atoms: _485  and  _486
REMARK  204  A    between atoms: _485  and  _488
REMARK  205  A    between atoms: _488  and  _489
REMARK  206  A    between atoms: _494  and  _496
REMARK  207  A    between atoms: _496  and  _497
REMARK  208  A    between atoms: _496  and  _499
REMARK  209  A    between atoms: _499  and  _500
REMARK  210  A    between atoms: _506  and  _508
REMARK  211  A    between atoms: _508  and  _509
REMARK  212  A    between atoms: _508  and  _511
REMARK  213  A    between atoms: _511  and  _512
REMARK  214  A    between atoms: _517  and  _518
REMARK  215  A    between atoms: _520  and  _522
REMARK  216  A    between atoms: _522  and  _523
REMARK  217  A    between atoms: _522  and  _525
REMARK  218  A    between atoms: _525  and  _526
REMARK  219  A    between atoms: _529  and  _531
REMARK  220  A    between atoms: _531  and  _532
REMARK  221  A    between atoms: _531  and  _534
REMARK  222  A    between atoms: _534  and  _535
REMARK  223  A    between atoms: _540  and  _541
REMARK  224  A    between atoms: _543  and  _545
REMARK  225  A    between atoms: _545  and  _546
REMARK  226  A    between atoms: _545  and  _548
REMARK  227  A    between atoms: _548  and  _549
REMARK  228  A    between atoms: _552  and  _554
REMARK  229  A    between atoms: _554  and  _555
REMARK  230  A    between atoms: _554  and  _557
REMARK  231  A    between atoms: _557  and  _558
REMARK  232  A    between atoms: _558  and  _559
REMARK  233  A    between atoms: _559  and  _560
REMARK  234  A    between atoms: _569  and  _571
REMARK  235  A    between atoms: _571  and  _572
REMARK  236  A    between atoms: _571  and  _574
REMARK  237  A    between atoms: _574  and  _575
REMARK  238  A    between atoms: _575  and  _576
REMARK  239  A    between atoms: _578  and  _580
REMARK  240  A    between atoms: _580  and  _581
REMARK  241  A    between atoms: _580  and  _583
REMARK  242  A    between atoms: _583  and  _584
REMARK  243  A    between atoms: _584  and  _585
REMARK  244  A    between atoms: _590  and  _592
REMARK  245  A    between atoms: _592  and  _593
REMARK  246  A    between atoms: _592  and  _595
REMARK  247  A    between atoms: _595  and  _596
REMARK                            x       y       z     vdW  Elec       q    Type
REMARK                         _______ _______ _______ _____ _____    ______ ____
ROOT
ATOM      1  CG  TRP A   1       2.628  10.972  18.017  0.00  0.00    -0.002 A 
ATOM      2  CD1 TRP A   1       2.362  11.831  19.054  0.00  0.00    +0.068 A 
ATOM      3  NE1 TRP A   1       3.031  13.022  18.861  0.00  0.00    -0.352 N 
ATOM      4  HE1 TRP A   1       3.010  13.836  19.508  0.00  0.00    +0.166 HD
ATOM      5  CE2 TRP A   1       3.730  12.962  17.679  0.00  0.00    +0.056 A 
ATOM      6  CZ2 TRP A   1       4.549  13.926  17.057  0.00  0.00    +0.017 A 
ATOM      7  CH2 TRP A   1       5.134  13.586  15.857  0.00  0.00    +0.001 A 
ATOM      8  CZ3 TRP A   1       4.930  12.316  15.268  0.00  0.00    +0.000 A 
ATOM      9  CE3 TRP A   1       4.118  11.356  15.891  0.00  0.00    +0.001 A 
ATOM     10  CD2 TRP A   1       3.501  11.682  17.116  0.00  0.00    +0.013 A 
ENDROOT
BRANCH   1  11
ATOM     11  CB  TRP A   1       2.099   9.579  17.840  0.00  0.00    +0.053 C 
BRANCH  11  12
ATOM     12  CA  TRP A   1       1.380   9.380  16.512  0.00  0.00    +0.137 C 
BRANCH  12  13
ATOM     13  N   TRP A   1       0.061  10.023  16.528  0.00  0.00    -0.239 NA
ATOM     14  H   TRP A   1      -0.364  10.289  17.439  0.00  0.00    +0.142 HD
ENDBRANCH  12  13
BRANCH  12  15
ATOM     15  C   TRP A   1       1.397   7.906  16.097  0.00  0.00    +0.224 C 
ATOM     16  O   TRP A   1       2.442   7.391  15.696  0.00  0.00    -0.287 OA
ENDBRANCH  12  15
ENDBRANCH  11  12
ENDBRANCH   1  11
TORSDOF 4
REMARK  Name = ../refined-set-2016/3ebi/3ebi_pocket.pdb
REMARK  247 active torsions:
REMARK  status: ('A' for Active; 'I' for Inactive)
REMARK    1  A    between atoms: _1  and  _3
REMARK    2  A    between atoms: _3  and  _4
REMARK    3  A    between atoms: _7  and  _9
REMARK    4  A    between atoms: _9  and  _10
REMARK    5  A    between atoms: _9  and  _12
REMARK    6  A    between atoms: _12  and  _13
REMARK    7  A    between atoms: _16  and  _18
REMARK    8  A    between atoms: _18  and  _19
REMARK    9  A    between atoms: _18  and  _21
REMARK   10  A    between atoms: _21  and  _22
REMARK   11  A    between atoms: _25  and  _27
REMARK   12  A    between atoms: _27  and  _28
REMARK   13  A    between atoms: _30  and  _32
REMARK   14  A    between atoms: _32  and  _33
REMARK   15  A    between atoms: _32  and  _35
REMARK   16  A    between atoms: _35  and  _36
REMARK   17  A    between atoms: _36  and  _37
REMARK   18  A    between atoms: _42  and  _44
REMARK   19  A    between atoms: _44  and  _45
REMARK   20  A    between atoms: _44  and  _47
REMARK   21  A    between atoms: _49  and  _51
REMARK   22  A    between atoms: _51  and  _52
REMARK   23  A    between atoms: _51  and  _54
REMARK   24  A    between atoms: _54  and  _55
REMARK   25  A    between atoms: _55  and  _56
REMARK   26  A    between atoms: _59  and  _61
REMARK   27  A    between atoms: _61  and  _62
REMARK   28  A    between atoms: _65  and  _67
REMARK   29  A    between atoms: _67  and  _68
REMARK   30  A    between atoms: _67  and  _70
REMARK   31  A    between atoms: _70  and  _71
REMARK   32  A    between atoms: _74  and  _76
REMARK   33  A    between atoms: _76  and  _77
REMARK   34  A    between atoms: _79  and  _81
REMARK   35  A    between atoms: _81  and  _82
REMARK   36  A    between atoms: _81  and  _84
REMARK   37  A    between atoms: _84  and  _85
REMARK   38  A    between atoms: _90  and  _91
REMARK   39  A    between atoms: _93  and  _95
REMARK   40  A    between atoms: _95  and  _96
REMARK   41  A    between atoms: _95  and  _98
REMARK   42  A    between atoms: _98  and  _99
REMARK   43  A    between atoms: _102  and  _104
REMARK   44  A    between atoms: _104  and  _105
REMARK   45  A    between atoms: _104  and  _107
REMARK   46  A    between atoms: _107  and  _108
REMARK   47  A    between atoms: _114  and  _116
REMARK   48  A    between atoms: _116  and  _117
REMARK   49  A    between atoms: _116  and  _119
REMARK   50  A    between atoms: _119  and  _120
REMARK   51  A    between atoms: _125  and  _127
REMARK   52  A    between atoms: _127  and  _128
REMARK   53  A    between atoms: _127  and  _130
REMARK   54  A    between atoms: _133  and  _135
REMARK   55  A    between atoms: _135  and  _136
REMARK   56  A    between atoms: _138  and  _140
REMARK   57  A    between atoms: _140  and  _141
REMARK   58  A    between atoms: _144  and  _146
REMARK   59  A    between atoms: _146  and  _147
REMARK   60  A    between atoms: _146  and  _149
REMARK   61  A    between atoms: _149  and  _150
REMARK   62  A    between atoms: _150  and  _151
REMARK   63  A    between atoms: _153  and  _155
REMARK   64  A    between atoms: _155  and  _156
REMARK   65  A    between atoms: _155  and  _158
REMARK   66  A    between atoms: _158  and  _159
REMARK   67  A    between atoms: _159  and  _160
REMARK   68  A    between atoms: _163  and  _165
REMARK   69  A    between atoms: _165  and  _166
REMARK   70  A    between atoms: _165  and  _168
REMARK   71  A    between atoms: _168  and  _169
REMARK   72  A    between atoms: _174  and  _176
REMARK   73  A    between atoms: _176  and  _177
REMARK   74  A    between atoms: _176  and  _179
REMARK   75  A    between atoms: _179  and  _180
REMARK   76  A    between atoms: _183  and  _185
REMARK   77  A    between atoms: _185  and  _186
REMARK   78  A    between atoms: _185  and  _188
REMARK   79  A    between atoms: _188  and  _189
REMARK   80  A    between atoms: _195  and  _197
REMARK   81  A    between atoms: _197  and  _198
REMARK   82  A    between atoms: _197  and  _200
REMARK   83  A    between atoms: _200  and  _201
REMARK   84  A    between atoms: _206  and  _208
REMARK   85  A    between atoms: _208  and  _209
REMARK   86  A    between atoms: _208  and  _211
REMARK   87  A    between atoms: _211  and  _212
REMARK   88  A    between atoms: _217  and  _219
REMARK   89  A    between atoms: _219  and  _220
REMARK   90  A    between atoms: _219  and  _222
REMARK   91  A    between atoms: _222  and  _223
REMARK   92  A    between atoms: _225  and  _227
REMARK   93  A    between atoms: _227  and  _228
REMARK   94  A    between atoms: _227  and  _230
REMARK   95  A    between atoms: _230  and  _231
REMARK   96  A    between atoms: _237  and  _239
REMARK   97  A    between atoms: _239  and  _240
REMARK   98  A    between atoms: _243  and  _245
REMARK   99  A    between atoms: _245  and  _246
REMARK  100  A    between atoms: _245  and  _248
REMARK  101  A    between atoms: _248  and  _249
REMARK  102  A    between atoms: _249  and  _250
REMARK  103  A    between atoms: _250  and  _251
REMARK  104  A    between atoms: _260  and  _262
REMARK  105  A    between atoms: _262  and  _263
REMARK  106  A    between atoms: _262  and  _265
REMARK  107  A    between atoms: _265  and  _266
REMARK  108  A    between atoms: _269  and  _271
REMARK  109  A    between atoms: _271  and  _272
REMARK  110  A    between atoms: _271  and  _274
REMARK  111  A    between atoms: _274  and  _275
REMARK  112  A    between atoms: _278  and  _280
REMARK  113  A    between atoms: _280  and  _281
REMARK  114  A    between atoms: _280  and  _283
REMARK  115  A    between atoms: _283  and  _284
REMARK  116  A    between atoms: _287  and  _289
REMARK  117  A    between atoms: _289  and  _290
REMARK  118  A    between atoms: _289  and  _292
REMARK  119  A    between atoms: _295  and  _297
REMARK  120  A    between atoms: _297  and  _298
REMARK  121  A    between atoms: _297  and  _300
REMARK  122  A    between atoms: _303  and  _305
REMARK  123  A    between atoms: _305  and  _306
REMARK  124  A    between atoms: _308  and  _310
REMARK  125  A    between atoms: _310  and  _311
REMARK  126  A    between atoms: _310  and  _313
REMARK  127  A    between atoms: _313  and  _314
REMARK  128  A    between atoms: _318  and  ZN_601
REMARK  129  A    between atoms: _319  and  _321
REMARK  130  A    between atoms: _321  and  _322
REMARK  131  A    between atoms: _321  and  _324
REMARK  132  A    between atoms: _324  and  _325
REMARK  133  A    between atoms: _325  and  _326
REMARK  134  A    between atoms: _329  and  _331
REMARK  135  A    between atoms: _331  and  _332
REMARK  136  A    between atoms: _331  and  _334
REMARK  137  A    between atoms: _334  and  _335
REMARK  138  A    between atoms: _340  and  _341
REMARK  139  A    between atoms: _343  and  _345
REMARK  140  A    between atoms: _345  and  _346
REMARK  141  A    between atoms: _345  and  _348
REMARK  142  A    between atoms: _348  and  _349
REMARK  143  A    between atoms: _353  and  ZN_601
REMARK  144  A    between atoms: _354  and  _356
REMARK  145  A    between atoms: _356  and  _357
REMARK  146  A    between atoms: _356  and  _359
REMARK  147  A    between atoms: _359  and  _360
REMARK  148  A    between atoms: _365  and  _367
REMARK  149  A    between atoms: _367  and  _368
REMARK  150  A    between atoms: _367  and  _370
REMARK  151  A    between atoms: _370  and  _371
REMARK  152  A    between atoms: _381  and  _383
REMARK  153  A    between atoms: _383  and  _384
REMARK  154  A    between atoms: _383  and  _386
REMARK  155  A    between atoms: _386  and  _387
REMARK  156  A    between atoms: _390  and  _392
REMARK  157  A    between atoms: _392  and  _393
REMARK  158  A    between atoms: _392  and  _395
REMARK  159  A    between atoms: _395  and  _396
REMARK  160  A    between atoms: _396  and  _397
REMARK  161  A    between atoms: _397  and  _398
REMARK  162  A    between atoms: _398  and  _399
REMARK  163  A    between atoms: _403  and  _405
REMARK  164  A    between atoms: _405  and  _406
REMARK  165  A    between atoms: _405  and  _408
REMARK  166  A    between atoms: _408  and  _409
REMARK  167  A    between atoms: _409  and  _410
REMARK  168  A    between atoms: _410  and  _411
REMARK  169  A    between atoms: _411  and  ZN_601
REMARK  170  A    between atoms: _413  and  _415
REMARK  171  A    between atoms: _415  and  _416
REMARK  172  A    between atoms: _418  and  _420
REMARK  173  A    between atoms: _420  and  _421
REMARK  174  A    between atoms: _420  and  _423
REMARK  175  A    between atoms: _423  and  _424
REMARK  176  A    between atoms: _427  and  _429
REMARK  177  A    between atoms: _429  and  _430
REMARK  178  A    between atoms: _429  and  _432
REMARK  179  A    between atoms: _435  and  _437
REMARK  180  A    between atoms: _437  and  _438
REMARK  181  A    between atoms: _437  and  _440
REMARK  182  A    between atoms: _440  and  _441
REMARK  183  A    between atoms: _441  and  _442
REMARK  184  A    between atoms: _445  and  _447
REMARK  185  A    between atoms: _447  and  _448
REMARK  186  A    between atoms: _447  and  _450
REMARK  187  A    between atoms: _450  and  _451
REMARK  188  A    between atoms: _456  and  _458
REMARK  189  A    between atoms: _458  and  _459
REMARK  190  A    between atoms: _458  and  _461
REMARK  191  A    between atoms: _461  and  _462
REMARK  192  A    between atoms: _464  and  _466
REMARK  193  A    between atoms: _466  and  _467
REMARK  194  A    between atoms: _466  and  _469
REMARK  195  A    between atoms: _469  and  _470
REMARK  196  A    between atoms: _470  and  _471
REMARK  197  A    between atoms: _473  and  _475
REMARK  198  A    between atoms: _475  and  _476
REMARK  199  A    between atoms: _475  and  _478
REMARK  200  A    between atoms: _478  and  _479
REMARK  201  A    between atoms: _479  and  _480
REMARK  202  A    between atoms: _483  and  _485
REMARK  203  A    between atoms: _485  and  _486
REMARK  204  A    between atoms: _485  and  _488
REMARK  205  A    between atoms: _488  and  _489
REMARK  206  A    between atoms: _494  and  _496
REMARK  207  A    between atoms: _496  and  _497
REMARK  208  A    between atoms: _496  and  _499
REMARK  209  A    between atoms: _499  and  _500
REMARK  210  A    between atoms: _506  and  _508
REMARK  211  A    between atoms: _508  and  _509
REMARK  212  A    between atoms: _508  and  _511
REMARK  213  A    between atoms: _511  and  _512
REMARK  214  A    between atoms: _517  and  _518
REMARK  215  A    between atoms: _520  and  _522
REMARK  216  A    between atoms: _522  and  _523
REMARK  217  A    between atoms: _522  and  _525
REMARK  218  A    between atoms: _525  and  _526
REMARK  219  A    between atoms: _529  and  _531
REMARK  220  A    between atoms: _531  and  _532
REMARK  221  A    between atoms: _531  and  _534
REMARK  222  A    between atoms: _534  and  _535
REMARK  223  A    between atoms: _540  and  _541
REMARK  224  A    between atoms: _543  and  _545
REMARK  225  A    between atoms: _545  and  _546
REMARK  226  A    between atoms: _545  and  _548
REMARK  227  A    between atoms: _548  and  _549
REMARK  228  A    between atoms: _552  and  _554
REMARK  229  A    between atoms: _554  and  _555
REMARK  230  A    between atoms: _554  and  _557
REMARK  231  A    between atoms: _557  and  _558
REMARK  232  A    between atoms: _558  and  _559
REMARK  233  A    between atoms: _559  and  _560
REMARK  234  A    between atoms: _569  and  _571
REMARK  235  A    between atoms: _571  and  _572
REMARK  236  A    between atoms: _571  and  _574
REMARK  237  A    between atoms: _574  and  _575
REMARK  238  A    between atoms: _575  and  _576
REMARK  239  A    between atoms: _578  and  _580
REMARK  240  A    between atoms: _580  and  _581
REMARK  241  A    between atoms: _580  and  _583
REMARK  242  A    between atoms: _583  and  _584
REMARK  243  A    between atoms: _584  and  _585
REMARK  244  A    between atoms: _590  and  _592
REMARK  245  A    between atoms: _592  and  _593
REMARK  246  A    between atoms: _592  and  _595
REMARK  247  A    between atoms: _595  and  _596
REMARK                            x       y       z     vdW  Elec       q    Type
REMARK                         _______ _______ _______ _____ _____    ______ ____
ROOT
ATOM      1  CA  LEU A   1       4.141   7.497  12.379  0.00  0.00    +0.133 C 
ENDROOT
BRANCH   1   2
ATOM      2  N   LEU A   1       2.731   7.168  12.621  0.00  0.00    -0.239 NA
ATOM      3  H   LEU A   1       2.448   6.832  13.564  0.00  0.00    +0.142 HD
ENDBRANCH   1   2
BRANCH   1   4
ATOM      4  C   LEU A   1       4.732   6.920  11.081  0.00  0.00    +0.224 C 
ATOM      5  O   LEU A   1       5.464   7.619  10.380  0.00  0.00    -0.287 OA
ENDBRANCH   1   4
BRANCH   1   6
ATOM      6  CB  LEU A   1       5.028   7.118  13.579  0.00  0.00    +0.025 C 
BRANCH   6   7
ATOM      7  CG  LEU A   1       6.481   7.620  13.480  0.00  0.00    +0.002 C 
ATOM      8  CD2 LEU A   1       7.343   7.028  14.574  0.00  0.00    +0.000 C 
ATOM      9  CD1 LEU A   1       6.568   9.168  13.467  0.00  0.00    +0.000 C 
ENDBRANCH   6   7
ENDBRANCH   1   6
TORSDOF 4
REMARK  Name = ../refined-set-2016/3ebi/3ebi_pocket.pdb
REMARK  247 active torsions:
REMARK  status: ('A' for Active; 'I' for Inactive)
REMARK    1  A    between atoms: _1  and  _3
REMARK    2  A    between atoms: _3  and  _4
REMARK    3  A    between atoms: _7  and  _9
REMARK    4  A    between atoms: _9  and  _10
REMARK    5  A    between atoms: _9  and  _12
REMARK    6  A    between atoms: _12  and  _13
REMARK    7  A    between atoms: _16  and  _18
REMARK    8  A    between atoms: _18  and  _19
REMARK    9  A    between atoms: _18  and  _21
REMARK   10  A    between atoms: _21  and  _22
REMARK   11  A    between atoms: _25  and  _27
REMARK   12  A    between atoms: _27  and  _28
REMARK   13  A    between atoms: _30  and  _32
REMARK   14  A    between atoms: _32  and  _33
REMARK   15  A    between atoms: _32  and  _35
REMARK   16  A    between atoms: _35  and  _36
REMARK   17  A    between atoms: _36  and  _37
REMARK   18  A    between atoms: _42  and  _44
REMARK   19  A    between atoms: _44  and  _45
REMARK   20  A    between atoms: _44  and  _47
REMARK   21  A    between atoms: _49  and  _51
REMARK   22  A    between atoms: _51  and  _52
REMARK   23  A    between atoms: _51  and  _54
REMARK   24  A    between atoms: _54  and  _55
REMARK   25  A    between atoms: _55  and  _56
REMARK   26  A    between atoms: _59  and  _61
REMARK   27  A    between atoms: _61  and  _62
REMARK   28  A    between atoms: _65  and  _67
REMARK   29  A    between atoms: _67  and  _68
REMARK   30  A    between atoms: _67  and  _70
REMARK   31  A    between atoms: _70  and  _71
REMARK   32  A    between atoms: _74  and  _76
REMARK   33  A    between atoms: _76  and  _77
REMARK   34  A    between atoms: _79  and  _81
REMARK   35  A    between atoms: _81  and  _82
REMARK   36  A    between atoms: _81  and  _84
REMARK   37  A    between atoms: _84  and  _85
REMARK   38  A    between atoms: _90  and  _91
REMARK   39  A    between atoms: _93  and  _95
REMARK   40  A    between atoms: _95  and  _96
REMARK   41  A    between atoms: _95  and  _98
REMARK   42  A    between atoms: _98  and  _99
REMARK   43  A    between atoms: _102  and  _104
REMARK   44  A    between atoms: _104  and  _105
REMARK   45  A    between atoms: _104  and  _107
REMARK   46  A    between atoms: _107  and  _108
REMARK   47  A    between atoms: _114  and  _116
REMARK   48  A    between atoms: _116  and  _117
REMARK   49  A    between atoms: _116  and  _119
REMARK   50  A    between atoms: _119  and  _120
REMARK   51  A    between atoms: _125  and  _127
REMARK   52  A    between atoms: _127  and  _128
REMARK   53  A    between atoms: _127  and  _130
REMARK   54  A    between atoms: _133  and  _135
REMARK   55  A    between atoms: _135  and  _136
REMARK   56  A    between atoms: _138  and  _140
REMARK   57  A    between atoms: _140  and  _141
REMARK   58  A    between atoms: _144  and  _146
REMARK   59  A    between atoms: _146  and  _147
REMARK   60  A    between atoms: _146  and  _149
REMARK   61  A    between atoms: _149  and  _150
REMARK   62  A    between atoms: _150  and  _151
REMARK   63  A    between atoms: _153  and  _155
REMARK   64  A    between atoms: _155  and  _156
REMARK   65  A    between atoms: _155  and  _158
REMARK   66  A    between atoms: _158  and  _159
REMARK   67  A    between atoms: _159  and  _160
REMARK   68  A    between atoms: _163  and  _165
REMARK   69  A    between atoms: _165  and  _166
REMARK   70  A    between atoms: _165  and  _168
REMARK   71  A    between atoms: _168  and  _169
REMARK   72  A    between atoms: _174  and  _176
REMARK   73  A    between atoms: _176  and  _177
REMARK   74  A    between atoms: _176  and  _179
REMARK   75  A    between atoms: _179  and  _180
REMARK   76  A    between atoms: _183  and  _185
REMARK   77  A    between atoms: _185  and  _186
REMARK   78  A    between atoms: _185  and  _188
REMARK   79  A    between atoms: _188  and  _189
REMARK   80  A    between atoms: _195  and  _197
REMARK   81  A    between atoms: _197  and  _198
REMARK   82  A    between atoms: _197  and  _200
REMARK   83  A    between atoms: _200  and  _201
REMARK   84  A    between atoms: _206  and  _208
REMARK   85  A    between atoms: _208  and  _209
REMARK   86  A    between atoms: _208  and  _211
REMARK   87  A    between atoms: _211  and  _212
REMARK   88  A    between atoms: _217  and  _219
REMARK   89  A    between atoms: _219  and  _220
REMARK   90  A    between atoms: _219  and  _222
REMARK   91  A    between atoms: _222  and  _223
REMARK   92  A    between atoms: _225  and  _227
REMARK   93  A    between atoms: _227  and  _228
REMARK   94  A    between atoms: _227  and  _230
REMARK   95  A    between atoms: _230  and  _231
REMARK   96  A    between atoms: _237  and  _239
REMARK   97  A    between atoms: _239  and  _240
REMARK   98  A    between atoms: _243  and  _245
REMARK   99  A    between atoms: _245  and  _246
REMARK  100  A    between atoms: _245  and  _248
REMARK  101  A    between atoms: _248  and  _249
REMARK  102  A    between atoms: _249  and  _250
REMARK  103  A    between atoms: _250  and  _251
REMARK  104  A    between atoms: _260  and  _262
REMARK  105  A    between atoms: _262  and  _263
REMARK  106  A    between atoms: _262  and  _265
REMARK  107  A    between atoms: _265  and  _266
REMARK  108  A    between atoms: _269  and  _271
REMARK  109  A    between atoms: _271  and  _272
REMARK  110  A    between atoms: _271  and  _274
REMARK  111  A    between atoms: _274  and  _275
REMARK  112  A    between atoms: _278  and  _280
REMARK  113  A    between atoms: _280  and  _281
REMARK  114  A    between atoms: _280  and  _283
REMARK  115  A    between atoms: _283  and  _284
REMARK  116  A    between atoms: _287  and  _289
REMARK  117  A    between atoms: _289  and  _290
REMARK  118  A    between atoms: _289  and  _292
REMARK  119  A    between atoms: _295  and  _297
REMARK  120  A    between atoms: _297  and  _298
REMARK  121  A    between atoms: _297  and  _300
REMARK  122  A    between atoms: _303  and  _305
REMARK  123  A    between atoms: _305  and  _306
REMARK  124  A    between atoms: _308  and  _310
REMARK  125  A    between atoms: _310  and  _311
REMARK  126  A    between atoms: _310  and  _313
REMARK  127  A    between atoms: _313  and  _314
REMARK  128  A    between atoms: _318  and  ZN_601
REMARK  129  A    between atoms: _319  and  _321
REMARK  130  A    between atoms: _321  and  _322
REMARK  131  A    between atoms: _321  and  _324
REMARK  132  A    between atoms: _324  and  _325
REMARK  133  A    between atoms: _325  and  _326
REMARK  134  A    between atoms: _329  and  _331
REMARK  135  A    between atoms: _331  and  _332
REMARK  136  A    between atoms: _331  and  _334
REMARK  137  A    between atoms: _334  and  _335
REMARK  138  A    between atoms: _340  and  _341
REMARK  139  A    between atoms: _343  and  _345
REMARK  140  A    between atoms: _345  and  _346
REMARK  141  A    between atoms: _345  and  _348
REMARK  142  A    between atoms: _348  and  _349
REMARK  143  A    between atoms: _353  and  ZN_601
REMARK  144  A    between atoms: _354  and  _356
REMARK  145  A    between atoms: _356  and  _357
REMARK  146  A    between atoms: _356  and  _359
REMARK  147  A    between atoms: _359  and  _360
REMARK  148  A    between atoms: _365  and  _367
REMARK  149  A    between atoms: _367  and  _368
REMARK  150  A    between atoms: _367  and  _370
REMARK  151  A    between atoms: _370  and  _371
REMARK  152  A    between atoms: _381  and  _383
REMARK  153  A    between atoms: _383  and  _384
REMARK  154  A    between atoms: _383  and  _386
REMARK  155  A    between atoms: _386  and  _387
REMARK  156  A    between atoms: _390  and  _392
REMARK  157  A    between atoms: _392  and  _393
REMARK  158  A    between atoms: _392  and  _395
REMARK  159  A    between atoms: _395  and  _396
REMARK  160  A    between atoms: _396  and  _397
REMARK  161  A    between atoms: _397  and  _398
REMARK  162  A    between atoms: _398  and  _399
REMARK  163  A    between atoms: _403  and  _405
REMARK  164  A    between atoms: _405  and  _406
REMARK  165  A    between atoms: _405  and  _408
REMARK  166  A    between atoms: _408  and  _409
REMARK  167  A    between atoms: _409  and  _410
REMARK  168  A    between atoms: _410  and  _411
REMARK  169  A    between atoms: _411  and  ZN_601
REMARK  170  A    between atoms: _413  and  _415
REMARK  171  A    between atoms: _415  and  _416
REMARK  172  A    between atoms: _418  and  _420
REMARK  173  A    between atoms: _420  and  _421
REMARK  174  A    between atoms: _420  and  _423
REMARK  175  A    between atoms: _423  and  _424
REMARK  176  A    between atoms: _427  and  _429
REMARK  177  A    between atoms: _429  and  _430
REMARK  178  A    between atoms: _429  and  _432
REMARK  179  A    between atoms: _435  and  _437
REMARK  180  A    between atoms: _437  and  _438
REMARK  181  A    between atoms: _437  and  _440
REMARK  182  A    between atoms: _440  and  _441
REMARK  183  A    between atoms: _441  and  _442
REMARK  184  A    between atoms: _445  and  _447
REMARK  185  A    between atoms: _447  and  _448
REMARK  186  A    between atoms: _447  and  _450
REMARK  187  A    between atoms: _450  and  _451
REMARK  188  A    between atoms: _456  and  _458
REMARK  189  A    between atoms: _458  and  _459
REMARK  190  A    between atoms: _458  and  _461
REMARK  191  A    between atoms: _461  and  _462
REMARK  192  A    between atoms: _464  and  _466
REMARK  193  A    between atoms: _466  and  _467
REMARK  194  A    between atoms: _466  and  _469
REMARK  195  A    between atoms: _469  and  _470
REMARK  196  A    between atoms: _470  and  _471
REMARK  197  A    between atoms: _473  and  _475
REMARK  198  A    between atoms: _475  and  _476
REMARK  199  A    between atoms: _475  and  _478
REMARK  200  A    between atoms: _478  and  _479
REMARK  201  A    between atoms: _479  and  _480
REMARK  202  A    between atoms: _483  and  _485
REMARK  203  A    between atoms: _485  and  _486
REMARK  204  A    between atoms: _485  and  _488
REMARK  205  A    between atoms: _488  and  _489
REMARK  206  A    between atoms: _494  and  _496
REMARK  207  A    between atoms: _496  and  _497
REMARK  208  A    between atoms: _496  and  _499
REMARK  209  A    between atoms: _499  and  _500
REMARK  210  A    between atoms: _506  and  _508
REMARK  211  A    between atoms: _508  and  _509
REMARK  212  A    between atoms: _508  and  _511
REMARK  213  A    between atoms: _511  and  _512
REMARK  214  A    between atoms: _517  and  _518
REMARK  215  A    between atoms: _520  and  _522
REMARK  216  A    between atoms: _522  and  _523
REMARK  217  A    between atoms: _522  and  _525
REMARK  218  A    between atoms: _525  and  _526
REMARK  219  A    between atoms: _529  and  _531
REMARK  220  A    between atoms: _531  and  _532
REMARK  221  A    between atoms: _531  and  _534
REMARK  222  A    between atoms: _534  and  _535
REMARK  223  A    between atoms: _540  and  _541
REMARK  224  A    between atoms: _543  and  _545
REMARK  225  A    between atoms: _545  and  _546
REMARK  226  A    between atoms: _545  and  _548
REMARK  227  A    between atoms: _548  and  _549
REMARK  228  A    between atoms: _552  and  _554
REMARK  229  A    between atoms: _554  and  _555
REMARK  230  A    between atoms: _554  and  _557
REMARK  231  A    between atoms: _557  and  _558
REMARK  232  A    between atoms: _558  and  _559
REMARK  233  A    between atoms: _559  and  _560
REMARK  234  A    between atoms: _569  and  _571
REMARK  235  A    between atoms: _571  and  _572
REMARK  236  A    between atoms: _571  and  _574
REMARK  237  A    between atoms: _574  and  _575
REMARK  238  A    between atoms: _575  and  _576
REMARK  239  A    between atoms: _578  and  _580
REMARK  240  A    between atoms: _580  and  _581
REMARK  241  A    between atoms: _580  and  _583
REMARK  242  A    between atoms: _583  and  _584
REMARK  243  A    between atoms: _584  and  _585
REMARK  244  A    between atoms: _590  and  _592
REMARK  245  A    between atoms: _592  and  _593
REMARK  246  A    between atoms: _592  and  _595
REMARK  247  A    between atoms: _595  and  _596
REMARK                            x       y       z     vdW  Elec       q    Type
REMARK                         _______ _______ _______ _____ _____    ______ ____
ROOT
ATOM      1  C   THR A   1      11.211   8.322   3.305  0.00  0.00    +0.241 C 
ATOM      2  N   VAL A   2      11.401   7.251   4.088  0.00  0.00    -0.298 N 
ATOM      3  H   VAL A   2      10.745   7.069   4.874  0.00  0.00    +0.150 HD
ATOM      4  O   THR A   1      12.016   8.670   2.448  0.00  0.00    -0.274 OA
ENDROOT
BRANCH   1   5
ATOM      5  CA  THR A   1       9.924   9.135   3.497  0.00  0.00    +0.172 C 
BRANCH   5   6
ATOM      6  N   THR A   1       8.759   8.272   3.706  0.00  0.00    -0.236 NA
ATOM      7  H   THR A   1       8.331   8.228   4.653  0.00  0.00    +0.142 HD
ENDBRANCH   5   6
BRANCH   5   8
ATOM      8  CB  THR A   1      10.043  10.196   4.624  0.00  0.00    +0.135 C 
ATOM      9  CG2 THR A   1      11.296  11.073   4.475  0.00  0.00    +0.034 C 
BRANCH   8  10
ATOM     10  OG1 THR A   1       8.880  11.038   4.573  0.00  0.00    -0.383 OA
ATOM     11  HG1 THR A   1       8.069  10.487   4.708  0.00  0.00    +0.210 HD
ENDBRANCH   8  10
ENDBRANCH   5   8
ENDBRANCH   1   5
BRANCH   2  12
ATOM     12  CA  VAL A   2      12.529   6.325   3.852  0.00  0.00    +0.137 C 
BRANCH  12  13
ATOM     13  CB  VAL A   2      12.623   5.184   4.922  0.00  0.00    +0.026 C 
ATOM     14  CG2 VAL A   2      12.913   5.753   6.298  0.00  0.00    +0.002 C 
ATOM     15  CG1 VAL A   2      13.713   4.142   4.543  0.00  0.00    +0.002 C 
ENDBRANCH  12  13
BRANCH  12  16
ATOM     16  C   VAL A   2      12.456   5.734   2.438  0.00  0.00    +0.227 C 
ATOM     17  O   VAL A   2      13.477   5.610   1.772  0.00  0.00    -0.286 OA
ENDBRANCH  12  16
ENDBRANCH   2  12
TORSDOF 7
REMARK  Name = ../refined-set-2016/3ebi/3ebi_pocket.pdb
REMARK  247 active torsions:
REMARK  status: ('A' for Active; 'I' for Inactive)
REMARK    1  A    between atoms: _1  and  _3
REMARK    2  A    between atoms: _3  and  _4
REMARK    3  A    between atoms: _7  and  _9
REMARK    4  A    between atoms: _9  and  _10
REMARK    5  A    between atoms: _9  and  _12
REMARK    6  A    between atoms: _12  and  _13
REMARK    7  A    between atoms: _16  and  _18
REMARK    8  A    between atoms: _18  and  _19
REMARK    9  A    between atoms: _18  and  _21
REMARK   10  A    between atoms: _21  and  _22
REMARK   11  A    between atoms: _25  and  _27
REMARK   12  A    between atoms: _27  and  _28
REMARK   13  A    between atoms: _30  and  _32
REMARK   14  A    between atoms: _32  and  _33
REMARK   15  A    between atoms: _32  and  _35
REMARK   16  A    between atoms: _35  and  _36
REMARK   17  A    between atoms: _36  and  _37
REMARK   18  A    between atoms: _42  and  _44
REMARK   19  A    between atoms: _44  and  _45
REMARK   20  A    between atoms: _44  and  _47
REMARK   21  A    between atoms: _49  and  _51
REMARK   22  A    between atoms: _51  and  _52
REMARK   23  A    between atoms: _51  and  _54
REMARK   24  A    between atoms: _54  and  _55
REMARK   25  A    between atoms: _55  and  _56
REMARK   26  A    between atoms: _59  and  _61
REMARK   27  A    between atoms: _61  and  _62
REMARK   28  A    between atoms: _65  and  _67
REMARK   29  A    between atoms: _67  and  _68
REMARK   30  A    between atoms: _67  and  _70
REMARK   31  A    between atoms: _70  and  _71
REMARK   32  A    between atoms: _74  and  _76
REMARK   33  A    between atoms: _76  and  _77
REMARK   34  A    between atoms: _79  and  _81
REMARK   35  A    between atoms: _81  and  _82
REMARK   36  A    between atoms: _81  and  _84
REMARK   37  A    between atoms: _84  and  _85
REMARK   38  A    between atoms: _90  and  _91
REMARK   39  A    between atoms: _93  and  _95
REMARK   40  A    between atoms: _95  and  _96
REMARK   41  A    between atoms: _95  and  _98
REMARK   42  A    between atoms: _98  and  _99
REMARK   43  A    between atoms: _102  and  _104
REMARK   44  A    between atoms: _104  and  _105
REMARK   45  A    between atoms: _104  and  _107
REMARK   46  A    between atoms: _107  and  _108
REMARK   47  A    between atoms: _114  and  _116
REMARK   48  A    between atoms: _116  and  _117
REMARK   49  A    between atoms: _116  and  _119
REMARK   50  A    between atoms: _119  and  _120
REMARK   51  A    between atoms: _125  and  _127
REMARK   52  A    between atoms: _127  and  _128
REMARK   53  A    between atoms: _127  and  _130
REMARK   54  A    between atoms: _133  and  _135
REMARK   55  A    between atoms: _135  and  _136
REMARK   56  A    between atoms: _138  and  _140
REMARK   57  A    between atoms: _140  and  _141
REMARK   58  A    between atoms: _144  and  _146
REMARK   59  A    between atoms: _146  and  _147
REMARK   60  A    between atoms: _146  and  _149
REMARK   61  A    between atoms: _149  and  _150
REMARK   62  A    between atoms: _150  and  _151
REMARK   63  A    between atoms: _153  and  _155
REMARK   64  A    between atoms: _155  and  _156
REMARK   65  A    between atoms: _155  and  _158
REMARK   66  A    between atoms: _158  and  _159
REMARK   67  A    between atoms: _159  and  _160
REMARK   68  A    between atoms: _163  and  _165
REMARK   69  A    between atoms: _165  and  _166
REMARK   70  A    between atoms: _165  and  _168
REMARK   71  A    between atoms: _168  and  _169
REMARK   72  A    between atoms: _174  and  _176
REMARK   73  A    between atoms: _176  and  _177
REMARK   74  A    between atoms: _176  and  _179
REMARK   75  A    between atoms: _179  and  _180
REMARK   76  A    between atoms: _183  and  _185
REMARK   77  A    between atoms: _185  and  _186
REMARK   78  A    between atoms: _185  and  _188
REMARK   79  A    between atoms: _188  and  _189
REMARK   80  A    between atoms: _195  and  _197
REMARK   81  A    between atoms: _197  and  _198
REMARK   82  A    between atoms: _197  and  _200
REMARK   83  A    between atoms: _200  and  _201
REMARK   84  A    between atoms: _206  and  _208
REMARK   85  A    between atoms: _208  and  _209
REMARK   86  A    between atoms: _208  and  _211
REMARK   87  A    between atoms: _211  and  _212
REMARK   88  A    between atoms: _217  and  _219
REMARK   89  A    between atoms: _219  and  _220
REMARK   90  A    between atoms: _219  and  _222
REMARK   91  A    between atoms: _222  and  _223
REMARK   92  A    between atoms: _225  and  _227
REMARK   93  A    between atoms: _227  and  _228
REMARK   94  A    between atoms: _227  and  _230
REMARK   95  A    between atoms: _230  and  _231
REMARK   96  A    between atoms: _237  and  _239
REMARK   97  A    between atoms: _239  and  _240
REMARK   98  A    between atoms: _243  and  _245
REMARK   99  A    between atoms: _245  and  _246
REMARK  100  A    between atoms: _245  and  _248
REMARK  101  A    between atoms: _248  and  _249
REMARK  102  A    between atoms: _249  and  _250
REMARK  103  A    between atoms: _250  and  _251
REMARK  104  A    between atoms: _260  and  _262
REMARK  105  A    between atoms: _262  and  _263
REMARK  106  A    between atoms: _262  and  _265
REMARK  107  A    between atoms: _265  and  _266
REMARK  108  A    between atoms: _269  and  _271
REMARK  109  A    between atoms: _271  and  _272
REMARK  110  A    between atoms: _271  and  _274
REMARK  111  A    between atoms: _274  and  _275
REMARK  112  A    between atoms: _278  and  _280
REMARK  113  A    between atoms: _280  and  _281
REMARK  114  A    between atoms: _280  and  _283
REMARK  115  A    between atoms: _283  and  _284
REMARK  116  A    between atoms: _287  and  _289
REMARK  117  A    between atoms: _289  and  _290
REMARK  118  A    between atoms: _289  and  _292
REMARK  119  A    between atoms: _295  and  _297
REMARK  120  A    between atoms: _297  and  _298
REMARK  121  A    between atoms: _297  and  _300
REMARK  122  A    between atoms: _303  and  _305
REMARK  123  A    between atoms: _305  and  _306
REMARK  124  A    between atoms: _308  and  _310
REMARK  125  A    between atoms: _310  and  _311
REMARK  126  A    between atoms: _310  and  _313
REMARK  127  A    between atoms: _313  and  _314
REMARK  128  A    between atoms: _318  and  ZN_601
REMARK  129  A    between atoms: _319  and  _321
REMARK  130  A    between atoms: _321  and  _322
REMARK  131  A    between atoms: _321  and  _324
REMARK  132  A    between atoms: _324  and  _325
REMARK  133  A    between atoms: _325  and  _326
REMARK  134  A    between atoms: _329  and  _331
REMARK  135  A    between atoms: _331  and  _332
REMARK  136  A    between atoms: _331  and  _334
REMARK  137  A    between atoms: _334  and  _335
REMARK  138  A    between atoms: _340  and  _341
REMARK  139  A    between atoms: _343  and  _345
REMARK  140  A    between atoms: _345  and  _346
REMARK  141  A    between atoms: _345  and  _348
REMARK  142  A    between atoms: _348  and  _349
REMARK  143  A    between atoms: _353  and  ZN_601
REMARK  144  A    between atoms: _354  and  _356
REMARK  145  A    between atoms: _356  and  _357
REMARK  146  A    between atoms: _356  and  _359
REMARK  147  A    between atoms: _359  and  _360
REMARK  148  A    between atoms: _365  and  _367
REMARK  149  A    between atoms: _367  and  _368
REMARK  150  A    between atoms: _367  and  _370
REMARK  151  A    between atoms: _370  and  _371
REMARK  152  A    between atoms: _381  and  _383
REMARK  153  A    between atoms: _383  and  _384
REMARK  154  A    between atoms: _383  and  _386
REMARK  155  A    between atoms: _386  and  _387
REMARK  156  A    between atoms: _390  and  _392
REMARK  157  A    between atoms: _392  and  _393
REMARK  158  A    between atoms: _392  and  _395
REMARK  159  A    between atoms: _395  and  _396
REMARK  160  A    between atoms: _396  and  _397
REMARK  161  A    between atoms: _397  and  _398
REMARK  162  A    between atoms: _398  and  _399
REMARK  163  A    between atoms: _403  and  _405
REMARK  164  A    between atoms: _405  and  _406
REMARK  165  A    between atoms: _405  and  _408
REMARK  166  A    between atoms: _408  and  _409
REMARK  167  A    between atoms: _409  and  _410
REMARK  168  A    between atoms: _410  and  _411
REMARK  169  A    between atoms: _411  and  ZN_601
REMARK  170  A    between atoms: _413  and  _415
REMARK  171  A    between atoms: _415  and  _416
REMARK  172  A    between atoms: _418  and  _420
REMARK  173  A    between atoms: _420  and  _421
REMARK  174  A    between atoms: _420  and  _423
REMARK  175  A    between atoms: _423  and  _424
REMARK  176  A    between atoms: _427  and  _429
REMARK  177  A    between atoms: _429  and  _430
REMARK  178  A    between atoms: _429  and  _432
REMARK  179  A    between atoms: _435  and  _437
REMARK  180  A    between atoms: _437  and  _438
REMARK  181  A    between atoms: _437  and  _440
REMARK  182  A    between atoms: _440  and  _441
REMARK  183  A    between atoms: _441  and  _442
REMARK  184  A    between atoms: _445  and  _447
REMARK  185  A    between atoms: _447  and  _448
REMARK  186  A    between atoms: _447  and  _450
REMARK  187  A    between atoms: _450  and  _451
REMARK  188  A    between atoms: _456  and  _458
REMARK  189  A    between atoms: _458  and  _459
REMARK  190  A    between atoms: _458  and  _461
REMARK  191  A    between atoms: _461  and  _462
REMARK  192  A    between atoms: _464  and  _466
REMARK  193  A    between atoms: _466  and  _467
REMARK  194  A    between atoms: _466  and  _469
REMARK  195  A    between atoms: _469  and  _470
REMARK  196  A    between atoms: _470  and  _471
REMARK  197  A    between atoms: _473  and  _475
REMARK  198  A    between atoms: _475  and  _476
REMARK  199  A    between atoms: _475  and  _478
REMARK  200  A    between atoms: _478  and  _479
REMARK  201  A    between atoms: _479  and  _480
REMARK  202  A    between atoms: _483  and  _485
REMARK  203  A    between atoms: _485  and  _486
REMARK  204  A    between atoms: _485  and  _488
REMARK  205  A    between atoms: _488  and  _489
REMARK  206  A    between atoms: _494  and  _496
REMARK  207  A    between atoms: _496  and  _497
REMARK  208  A    between atoms: _496  and  _499
REMARK  209  A    between atoms: _499  and  _500
REMARK  210  A    between atoms: _506  and  _508
REMARK  211  A    between atoms: _508  and  _509
REMARK  212  A    between atoms: _508  and  _511
REMARK  213  A    between atoms: _511  and  _512
REMARK  214  A    between atoms: _517  and  _518
REMARK  215  A    between atoms: _520  and  _522
REMARK  216  A    between atoms: _522  and  _523
REMARK  217  A    between atoms: _522  and  _525
REMARK  218  A    between atoms: _525  and  _526
REMARK  219  A    between atoms: _529  and  _531
REMARK  220  A    between atoms: _531  and  _532
REMARK  221  A    between atoms: _531  and  _534
REMARK  222  A    between atoms: _534  and  _535
REMARK  223  A    between atoms: _540  and  _541
REMARK  224  A    between atoms: _543  and  _545
REMARK  225  A    between atoms: _545  and  _546
REMARK  226  A    between atoms: _545  and  _548
REMARK  227  A    between atoms: _548  and  _549
REMARK  228  A    between atoms: _552  and  _554
REMARK  229  A    between atoms: _554  and  _555
REMARK  230  A    between atoms: _554  and  _557
REMARK  231  A    between atoms: _557  and  _558
REMARK  232  A    between atoms: _558  and  _559
REMARK  233  A    between atoms: _559  and  _560
REMARK  234  A    between atoms: _569  and  _571
REMARK  235  A    between atoms: _571  and  _572
REMARK  236  A    between atoms: _571  and  _574
REMARK  237  A    between atoms: _574  and  _575
REMARK  238  A    between atoms: _575  and  _576
REMARK  239  A    between atoms: _578  and  _580
REMARK  240  A    between atoms: _580  and  _581
REMARK  241  A    between atoms: _580  and  _583
REMARK  242  A    between atoms: _583  and  _584
REMARK  243  A    between atoms: _584  and  _585
REMARK  244  A    between atoms: _590  and  _592
REMARK  245  A    between atoms: _592  and  _593
REMARK  246  A    between atoms: _592  and  _595
REMARK  247  A    between atoms: _595  and  _596
REMARK                            x       y       z     vdW  Elec       q    Type
REMARK                         _______ _______ _______ _____ _____    ______ ____
ROOT
ATOM      1  C   GLU A   1      15.626   7.401  -0.533  0.00  0.00    +0.238 C 
ATOM      2  N   ASN A   2      15.067   6.194  -0.441  0.00  0.00    -0.298 N 
ATOM      3  H   ASN A   2      14.202   6.077   0.125  0.00  0.00    +0.150 HD
ATOM      4  O   GLU A   1      16.680   7.601  -1.143  0.00  0.00    -0.274 OA
ENDROOT
BRANCH   1   5
ATOM      5  CA  GLU A   1      14.910   8.570   0.180  0.00  0.00    +0.145 C 
BRANCH   5   6
ATOM      6  N   GLU A   1      13.447   8.488   0.090  0.00  0.00    -0.238 NA
ATOM      7  H   GLU A   1      12.889   8.399   0.963  0.00  0.00    +0.142 HD
ENDBRANCH   5   6
BRANCH   5   8
ATOM      8  CB  GLU A   1      15.377   8.701   1.636  0.00  0.00    +0.038 C 
BRANCH   8   9
ATOM      9  CG  GLU A   1      16.892   8.788   1.797  0.00  0.00    +0.116 C 
BRANCH   9  10
ATOM     10  CD  GLU A   1      17.569   7.411   1.802  0.00  0.00    +0.365 C 
ATOM     11  OE2 GLU A   1      17.075   6.513   2.509  0.00  0.00    -0.246 OA
ATOM     12  OE1 GLU A   1      18.585   7.229   1.096  0.00  0.00    -0.246 OA
ENDBRANCH   9  10
ENDBRANCH   8   9
ENDBRANCH   5   8
ENDBRANCH   1   5
BRANCH   2  13
ATOM     13  CA  ASN A   2      15.643   5.025  -1.120  0.00  0.00    +0.146 C 
BRANCH  13  14
ATOM     14  C   ASN A   2      15.622   5.175  -2.641  0.00  0.00    +0.227 C 
ATOM     15  O   ASN A   2      16.604   4.852  -3.299  0.00  0.00    -0.286 OA
ENDBRANCH  13  14
BRANCH  13  16
ATOM     16  CB  ASN A   2      14.925   3.722  -0.736  0.00  0.00    +0.112 C 
BRANCH  16  17
ATOM     17  CG  ASN A   2      15.198   3.265   0.708  0.00  0.00    +0.222 C 
ATOM     18  OD1 ASN A   2      15.933   3.888   1.469  0.00  0.00    -0.275 OA
ATOM     19  ND2 ASN A   2      14.573   2.163   1.081  0.00  0.00    -0.329 N 
ATOM     20 HD21 ASN A   2      14.696   1.797   2.047  0.00  0.00    +0.145 HD
ATOM     21 HD22 ASN A   2      13.958   1.661   0.409  0.00  0.00    +0.145 HD
ENDBRANCH  16  17
ENDBRANCH  13  16
ENDBRANCH   2  13
TORSDOF 9
REMARK  Name = ../refined-set-2016/3ebi/3ebi_pocket.pdb
REMARK  247 active torsions:
REMARK  status: ('A' for Active; 'I' for Inactive)
REMARK    1  A    between atoms: _1  and  _3
REMARK    2  A    between atoms: _3  and  _4
REMARK    3  A    between atoms: _7  and  _9
REMARK    4  A    between atoms: _9  and  _10
REMARK    5  A    between atoms: _9  and  _12
REMARK    6  A    between atoms: _12  and  _13
REMARK    7  A    between atoms: _16  and  _18
REMARK    8  A    between atoms: _18  and  _19
REMARK    9  A    between atoms: _18  and  _21
REMARK   10  A    between atoms: _21  and  _22
REMARK   11  A    between atoms: _25  and  _27
REMARK   12  A    between atoms: _27  and  _28
REMARK   13  A    between atoms: _30  and  _32
REMARK   14  A    between atoms: _32  and  _33
REMARK   15  A    between atoms: _32  and  _35
REMARK   16  A    between atoms: _35  and  _36
REMARK   17  A    between atoms: _36  and  _37
REMARK   18  A    between atoms: _42  and  _44
REMARK   19  A    between atoms: _44  and  _45
REMARK   20  A    between atoms: _44  and  _47
REMARK   21  A    between atoms: _49  and  _51
REMARK   22  A    between atoms: _51  and  _52
REMARK   23  A    between atoms: _51  and  _54
REMARK   24  A    between atoms: _54  and  _55
REMARK   25  A    between atoms: _55  and  _56
REMARK   26  A    between atoms: _59  and  _61
REMARK   27  A    between atoms: _61  and  _62
REMARK   28  A    between atoms: _65  and  _67
REMARK   29  A    between atoms: _67  and  _68
REMARK   30  A    between atoms: _67  and  _70
REMARK   31  A    between atoms: _70  and  _71
REMARK   32  A    between atoms: _74  and  _76
REMARK   33  A    between atoms: _76  and  _77
REMARK   34  A    between atoms: _79  and  _81
REMARK   35  A    between atoms: _81  and  _82
REMARK   36  A    between atoms: _81  and  _84
REMARK   37  A    between atoms: _84  and  _85
REMARK   38  A    between atoms: _90  and  _91
REMARK   39  A    between atoms: _93  and  _95
REMARK   40  A    between atoms: _95  and  _96
REMARK   41  A    between atoms: _95  and  _98
REMARK   42  A    between atoms: _98  and  _99
REMARK   43  A    between atoms: _102  and  _104
REMARK   44  A    between atoms: _104  and  _105
REMARK   45  A    between atoms: _104  and  _107
REMARK   46  A    between atoms: _107  and  _108
REMARK   47  A    between atoms: _114  and  _116
REMARK   48  A    between atoms: _116  and  _117
REMARK   49  A    between atoms: _116  and  _119
REMARK   50  A    between atoms: _119  and  _120
REMARK   51  A    between atoms: _125  and  _127
REMARK   52  A    between atoms: _127  and  _128
REMARK   53  A    between atoms: _127  and  _130
REMARK   54  A    between atoms: _133  and  _135
REMARK   55  A    between atoms: _135  and  _136
REMARK   56  A    between atoms: _138  and  _140
REMARK   57  A    between atoms: _140  and  _141
REMARK   58  A    between atoms: _144  and  _146
REMARK   59  A    between atoms: _146  and  _147
REMARK   60  A    between atoms: _146  and  _149
REMARK   61  A    between atoms: _149  and  _150
REMARK   62  A    between atoms: _150  and  _151
REMARK   63  A    between atoms: _153  and  _155
REMARK   64  A    between atoms: _155  and  _156
REMARK   65  A    between atoms: _155  and  _158
REMARK   66  A    between atoms: _158  and  _159
REMARK   67  A    between atoms: _159  and  _160
REMARK   68  A    between atoms: _163  and  _165
REMARK   69  A    between atoms: _165  and  _166
REMARK   70  A    between atoms: _165  and  _168
REMARK   71  A    between atoms: _168  and  _169
REMARK   72  A    between atoms: _174  and  _176
REMARK   73  A    between atoms: _176  and  _177
REMARK   74  A    between atoms: _176  and  _179
REMARK   75  A    between atoms: _179  and  _180
REMARK   76  A    between atoms: _183  and  _185
REMARK   77  A    between atoms: _185  and  _186
REMARK   78  A    between atoms: _185  and  _188
REMARK   79  A    between atoms: _188  and  _189
REMARK   80  A    between atoms: _195  and  _197
REMARK   81  A    between atoms: _197  and  _198
REMARK   82  A    between atoms: _197  and  _200
REMARK   83  A    between atoms: _200  and  _201
REMARK   84  A    between atoms: _206  and  _208
REMARK   85  A    between atoms: _208  and  _209
REMARK   86  A    between atoms: _208  and  _211
REMARK   87  A    between atoms: _211  and  _212
REMARK   88  A    between atoms: _217  and  _219
REMARK   89  A    between atoms: _219  and  _220
REMARK   90  A    between atoms: _219  and  _222
REMARK   91  A    between atoms: _222  and  _223
REMARK   92  A    between atoms: _225  and  _227
REMARK   93  A    between atoms: _227  and  _228
REMARK   94  A    between atoms: _227  and  _230
REMARK   95  A    between atoms: _230  and  _231
REMARK   96  A    between atoms: _237  and  _239
REMARK   97  A    between atoms: _239  and  _240
REMARK   98  A    between atoms: _243  and  _245
REMARK   99  A    between atoms: _245  and  _246
REMARK  100  A    between atoms: _245  and  _248
REMARK  101  A    between atoms: _248  and  _249
REMARK  102  A    between atoms: _249  and  _250
REMARK  103  A    between atoms: _250  and  _251
REMARK  104  A    between atoms: _260  and  _262
REMARK  105  A    between atoms: _262  and  _263
REMARK  106  A    between atoms: _262  and  _265
REMARK  107  A    between atoms: _265  and  _266
REMARK  108  A    between atoms: _269  and  _271
REMARK  109  A    between atoms: _271  and  _272
REMARK  110  A    between atoms: _271  and  _274
REMARK  111  A    between atoms: _274  and  _275
REMARK  112  A    between atoms: _278  and  _280
REMARK  113  A    between atoms: _280  and  _281
REMARK  114  A    between atoms: _280  and  _283
REMARK  115  A    between atoms: _283  and  _284
REMARK  116  A    between atoms: _287  and  _289
REMARK  117  A    between atoms: _289  and  _290
REMARK  118  A    between atoms: _289  and  _292
REMARK  119  A    between atoms: _295  and  _297
REMARK  120  A    between atoms: _297  and  _298
REMARK  121  A    between atoms: _297  and  _300
REMARK  122  A    between atoms: _303  and  _305
REMARK  123  A    between atoms: _305  and  _306
REMARK  124  A    between atoms: _308  and  _310
REMARK  125  A    between atoms: _310  and  _311
REMARK  126  A    between atoms: _310  and  _313
REMARK  127  A    between atoms: _313  and  _314
REMARK  128  A    between atoms: _318  and  ZN_601
REMARK  129  A    between atoms: _319  and  _321
REMARK  130  A    between atoms: _321  and  _322
REMARK  131  A    between atoms: _321  and  _324
REMARK  132  A    between atoms: _324  and  _325
REMARK  133  A    between atoms: _325  and  _326
REMARK  134  A    between atoms: _329  and  _331
REMARK  135  A    between atoms: _331  and  _332
REMARK  136  A    between atoms: _331  and  _334
REMARK  137  A    between atoms: _334  and  _335
REMARK  138  A    between atoms: _340  and  _341
REMARK  139  A    between atoms: _343  and  _345
REMARK  140  A    between atoms: _345  and  _346
REMARK  141  A    between atoms: _345  and  _348
REMARK  142  A    between atoms: _348  and  _349
REMARK  143  A    between atoms: _353  and  ZN_601
REMARK  144  A    between atoms: _354  and  _356
REMARK  145  A    between atoms: _356  and  _357
REMARK  146  A    between atoms: _356  and  _359
REMARK  147  A    between atoms: _359  and  _360
REMARK  148  A    between atoms: _365  and  _367
REMARK  149  A    between atoms: _367  and  _368
REMARK  150  A    between atoms: _367  and  _370
REMARK  151  A    between atoms: _370  and  _371
REMARK  152  A    between atoms: _381  and  _383
REMARK  153  A    between atoms: _383  and  _384
REMARK  154  A    between atoms: _383  and  _386
REMARK  155  A    between atoms: _386  and  _387
REMARK  156  A    between atoms: _390  and  _392
REMARK  157  A    between atoms: _392  and  _393
REMARK  158  A    between atoms: _392  and  _395
REMARK  159  A    between atoms: _395  and  _396
REMARK  160  A    between atoms: _396  and  _397
REMARK  161  A    between atoms: _397  and  _398
REMARK  162  A    between atoms: _398  and  _399
REMARK  163  A    between atoms: _403  and  _405
REMARK  164  A    between atoms: _405  and  _406
REMARK  165  A    between atoms: _405  and  _408
REMARK  166  A    between atoms: _408  and  _409
REMARK  167  A    between atoms: _409  and  _410
REMARK  168  A    between atoms: _410  and  _411
REMARK  169  A    between atoms: _411  and  ZN_601
REMARK  170  A    between atoms: _413  and  _415
REMARK  171  A    between atoms: _415  and  _416
REMARK  172  A    between atoms: _418  and  _420
REMARK  173  A    between atoms: _420  and  _421
REMARK  174  A    between atoms: _420  and  _423
REMARK  175  A    between atoms: _423  and  _424
REMARK  176  A    between atoms: _427  and  _429
REMARK  177  A    between atoms: _429  and  _430
REMARK  178  A    between atoms: _429  and  _432
REMARK  179  A    between atoms: _435  and  _437
REMARK  180  A    between atoms: _437  and  _438
REMARK  181  A    between atoms: _437  and  _440
REMARK  182  A    between atoms: _440  and  _441
REMARK  183  A    between atoms: _441  and  _442
REMARK  184  A    between atoms: _445  and  _447
REMARK  185  A    between atoms: _447  and  _448
REMARK  186  A    between atoms: _447  and  _450
REMARK  187  A    between atoms: _450  and  _451
REMARK  188  A    between atoms: _456  and  _458
REMARK  189  A    between atoms: _458  and  _459
REMARK  190  A    between atoms: _458  and  _461
REMARK  191  A    between atoms: _461  and  _462
REMARK  192  A    between atoms: _464  and  _466
REMARK  193  A    between atoms: _466  and  _467
REMARK  194  A    between atoms: _466  and  _469
REMARK  195  A    between atoms: _469  and  _470
REMARK  196  A    between atoms: _470  and  _471
REMARK  197  A    between atoms: _473  and  _475
REMARK  198  A    between atoms: _475  and  _476
REMARK  199  A    between atoms: _475  and  _478
REMARK  200  A    between atoms: _478  and  _479
REMARK  201  A    between atoms: _479  and  _480
REMARK  202  A    between atoms: _483  and  _485
REMARK  203  A    between atoms: _485  and  _486
REMARK  204  A    between atoms: _485  and  _488
REMARK  205  A    between atoms: _488  and  _489
REMARK  206  A    between atoms: _494  and  _496
REMARK  207  A    between atoms: _496  and  _497
REMARK  208  A    between atoms: _496  and  _499
REMARK  209  A    between atoms: _499  and  _500
REMARK  210  A    between atoms: _506  and  _508
REMARK  211  A    between atoms: _508  and  _509
REMARK  212  A    between atoms: _508  and  _511
REMARK  213  A    between atoms: _511  and  _512
REMARK  214  A    between atoms: _517  and  _518
REMARK  215  A    between atoms: _520  and  _522
REMARK  216  A    between atoms: _522  and  _523
REMARK  217  A    between atoms: _522  and  _525
REMARK  218  A    between atoms: _525  and  _526
REMARK  219  A    between atoms: _529  and  _531
REMARK  220  A    between atoms: _531  and  _532
REMARK  221  A    between atoms: _531  and  _534
REMARK  222  A    between atoms: _534  and  _535
REMARK  223  A    between atoms: _540  and  _541
REMARK  224  A    between atoms: _543  and  _545
REMARK  225  A    between atoms: _545  and  _546
REMARK  226  A    between atoms: _545  and  _548
REMARK  227  A    between atoms: _548  and  _549
REMARK  228  A    between atoms: _552  and  _554
REMARK  229  A    between atoms: _554  and  _555
REMARK  230  A    between atoms: _554  and  _557
REMARK  231  A    between atoms: _557  and  _558
REMARK  232  A    between atoms: _558  and  _559
REMARK  233  A    between atoms: _559  and  _560
REMARK  234  A    between atoms: _569  and  _571
REMARK  235  A    between atoms: _571  and  _572
REMARK  236  A    between atoms: _571  and  _574
REMARK  237  A    between atoms: _574  and  _575
REMARK  238  A    between atoms: _575  and  _576
REMARK  239  A    between atoms: _578  and  _580
REMARK  240  A    between atoms: _580  and  _581
REMARK  241  A    between atoms: _580  and  _583
REMARK  242  A    between atoms: _583  and  _584
REMARK  243  A    between atoms: _584  and  _585
REMARK  244  A    between atoms: _590  and  _592
REMARK  245  A    between atoms: _592  and  _593
REMARK  246  A    between atoms: _592  and  _595
REMARK  247  A    between atoms: _595  and  _596
REMARK                            x       y       z     vdW  Elec       q    Type
REMARK                         _______ _______ _______ _____ _____    ______ ____
ROOT
ATOM      1  CA  SER A   1      19.722   7.385  -3.381  0.00  0.00    +0.163 C 
ENDROOT
BRANCH   1   2
ATOM      2  N   SER A   1      18.342   7.865  -3.488  0.00  0.00    -0.237 NA
ATOM      3  H   SER A   1      17.674   7.666  -2.716  0.00  0.00    +0.142 HD
ENDBRANCH   1   2
BRANCH   1   4
ATOM      4  C   SER A   1      20.100   6.376  -4.471  0.00  0.00    +0.227 C 
ATOM      5  O   SER A   1      21.196   6.444  -5.004  0.00  0.00    -0.287 OA
ENDBRANCH   1   4
BRANCH   1   6
ATOM      6  CB  SER A   1      20.011   6.823  -1.985  0.00  0.00    +0.162 C 
BRANCH   6   7
ATOM      7  OG  SER A   1      20.256   7.875  -1.060  0.00  0.00    -0.380 OA
ATOM      8  H   SER A   1      20.440   7.491  -0.166  0.00  0.00    +0.211 HD
ENDBRANCH   6   7
ENDBRANCH   1   6
TORSDOF 4
REMARK  Name = ../refined-set-2016/3ebi/3ebi_pocket.pdb
REMARK  247 active torsions:
REMARK  status: ('A' for Active; 'I' for Inactive)
REMARK    1  A    between atoms: _1  and  _3
REMARK    2  A    between atoms: _3  and  _4
REMARK    3  A    between atoms: _7  and  _9
REMARK    4  A    between atoms: _9  and  _10
REMARK    5  A    between atoms: _9  and  _12
REMARK    6  A    between atoms: _12  and  _13
REMARK    7  A    between atoms: _16  and  _18
REMARK    8  A    between atoms: _18  and  _19
REMARK    9  A    between atoms: _18  and  _21
REMARK   10  A    between atoms: _21  and  _22
REMARK   11  A    between atoms: _25  and  _27
REMARK   12  A    between atoms: _27  and  _28
REMARK   13  A    between atoms: _30  and  _32
REMARK   14  A    between atoms: _32  and  _33
REMARK   15  A    between atoms: _32  and  _35
REMARK   16  A    between atoms: _35  and  _36
REMARK   17  A    between atoms: _36  and  _37
REMARK   18  A    between atoms: _42  and  _44
REMARK   19  A    between atoms: _44  and  _45
REMARK   20  A    between atoms: _44  and  _47
REMARK   21  A    between atoms: _49  and  _51
REMARK   22  A    between atoms: _51  and  _52
REMARK   23  A    between atoms: _51  and  _54
REMARK   24  A    between atoms: _54  and  _55
REMARK   25  A    between atoms: _55  and  _56
REMARK   26  A    between atoms: _59  and  _61
REMARK   27  A    between atoms: _61  and  _62
REMARK   28  A    between atoms: _65  and  _67
REMARK   29  A    between atoms: _67  and  _68
REMARK   30  A    between atoms: _67  and  _70
REMARK   31  A    between atoms: _70  and  _71
REMARK   32  A    between atoms: _74  and  _76
REMARK   33  A    between atoms: _76  and  _77
REMARK   34  A    between atoms: _79  and  _81
REMARK   35  A    between atoms: _81  and  _82
REMARK   36  A    between atoms: _81  and  _84
REMARK   37  A    between atoms: _84  and  _85
REMARK   38  A    between atoms: _90  and  _91
REMARK   39  A    between atoms: _93  and  _95
REMARK   40  A    between atoms: _95  and  _96
REMARK   41  A    between atoms: _95  and  _98
REMARK   42  A    between atoms: _98  and  _99
REMARK   43  A    between atoms: _102  and  _104
REMARK   44  A    between atoms: _104  and  _105
REMARK   45  A    between atoms: _104  and  _107
REMARK   46  A    between atoms: _107  and  _108
REMARK   47  A    between atoms: _114  and  _116
REMARK   48  A    between atoms: _116  and  _117
REMARK   49  A    between atoms: _116  and  _119
REMARK   50  A    between atoms: _119  and  _120
REMARK   51  A    between atoms: _125  and  _127
REMARK   52  A    between atoms: _127  and  _128
REMARK   53  A    between atoms: _127  and  _130
REMARK   54  A    between atoms: _133  and  _135
REMARK   55  A    between atoms: _135  and  _136
REMARK   56  A    between atoms: _138  and  _140
REMARK   57  A    between atoms: _140  and  _141
REMARK   58  A    between atoms: _144  and  _146
REMARK   59  A    between atoms: _146  and  _147
REMARK   60  A    between atoms: _146  and  _149
REMARK   61  A    between atoms: _149  and  _150
REMARK   62  A    between atoms: _150  and  _151
REMARK   63  A    between atoms: _153  and  _155
REMARK   64  A    between atoms: _155  and  _156
REMARK   65  A    between atoms: _155  and  _158
REMARK   66  A    between atoms: _158  and  _159
REMARK   67  A    between atoms: _159  and  _160
REMARK   68  A    between atoms: _163  and  _165
REMARK   69  A    between atoms: _165  and  _166
REMARK   70  A    between atoms: _165  and  _168
REMARK   71  A    between atoms: _168  and  _169
REMARK   72  A    between atoms: _174  and  _176
REMARK   73  A    between atoms: _176  and  _177
REMARK   74  A    between atoms: _176  and  _179
REMARK   75  A    between atoms: _179  and  _180
REMARK   76  A    between atoms: _183  and  _185
REMARK   77  A    between atoms: _185  and  _186
REMARK   78  A    between atoms: _185  and  _188
REMARK   79  A    between atoms: _188  and  _189
REMARK   80  A    between atoms: _195  and  _197
REMARK   81  A    between atoms: _197  and  _198
REMARK   82  A    between atoms: _197  and  _200
REMARK   83  A    between atoms: _200  and  _201
REMARK   84  A    between atoms: _206  and  _208
REMARK   85  A    between atoms: _208  and  _209
REMARK   86  A    between atoms: _208  and  _211
REMARK   87  A    between atoms: _211  and  _212
REMARK   88  A    between atoms: _217  and  _219
REMARK   89  A    between atoms: _219  and  _220
REMARK   90  A    between atoms: _219  and  _222
REMARK   91  A    between atoms: _222  and  _223
REMARK   92  A    between atoms: _225  and  _227
REMARK   93  A    between atoms: _227  and  _228
REMARK   94  A    between atoms: _227  and  _230
REMARK   95  A    between atoms: _230  and  _231
REMARK   96  A    between atoms: _237  and  _239
REMARK   97  A    between atoms: _239  and  _240
REMARK   98  A    between atoms: _243  and  _245
REMARK   99  A    between atoms: _245  and  _246
REMARK  100  A    between atoms: _245  and  _248
REMARK  101  A    between atoms: _248  and  _249
REMARK  102  A    between atoms: _249  and  _250
REMARK  103  A    between atoms: _250  and  _251
REMARK  104  A    between atoms: _260  and  _262
REMARK  105  A    between atoms: _262  and  _263
REMARK  106  A    between atoms: _262  and  _265
REMARK  107  A    between atoms: _265  and  _266
REMARK  108  A    between atoms: _269  and  _271
REMARK  109  A    between atoms: _271  and  _272
REMARK  110  A    between atoms: _271  and  _274
REMARK  111  A    between atoms: _274  and  _275
REMARK  112  A    between atoms: _278  and  _280
REMARK  113  A    between atoms: _280  and  _281
REMARK  114  A    between atoms: _280  and  _283
REMARK  115  A    between atoms: _283  and  _284
REMARK  116  A    between atoms: _287  and  _289
REMARK  117  A    between atoms: _289  and  _290
REMARK  118  A    between atoms: _289  and  _292
REMARK  119  A    between atoms: _295  and  _297
REMARK  120  A    between atoms: _297  and  _298
REMARK  121  A    between atoms: _297  and  _300
REMARK  122  A    between atoms: _303  and  _305
REMARK  123  A    between atoms: _305  and  _306
REMARK  124  A    between atoms: _308  and  _310
REMARK  125  A    between atoms: _310  and  _311
REMARK  126  A    between atoms: _310  and  _313
REMARK  127  A    between atoms: _313  and  _314
REMARK  128  A    between atoms: _318  and  ZN_601
REMARK  129  A    between atoms: _319  and  _321
REMARK  130  A    between atoms: _321  and  _322
REMARK  131  A    between atoms: _321  and  _324
REMARK  132  A    between atoms: _324  and  _325
REMARK  133  A    between atoms: _325  and  _326
REMARK  134  A    between atoms: _329  and  _331
REMARK  135  A    between atoms: _331  and  _332
REMARK  136  A    between atoms: _331  and  _334
REMARK  137  A    between atoms: _334  and  _335
REMARK  138  A    between atoms: _340  and  _341
REMARK  139  A    between atoms: _343  and  _345
REMARK  140  A    between atoms: _345  and  _346
REMARK  141  A    between atoms: _345  and  _348
REMARK  142  A    between atoms: _348  and  _349
REMARK  143  A    between atoms: _353  and  ZN_601
REMARK  144  A    between atoms: _354  and  _356
REMARK  145  A    between atoms: _356  and  _357
REMARK  146  A    between atoms: _356  and  _359
REMARK  147  A    between atoms: _359  and  _360
REMARK  148  A    between atoms: _365  and  _367
REMARK  149  A    between atoms: _367  and  _368
REMARK  150  A    between atoms: _367  and  _370
REMARK  151  A    between atoms: _370  and  _371
REMARK  152  A    between atoms: _381  and  _383
REMARK  153  A    between atoms: _383  and  _384
REMARK  154  A    between atoms: _383  and  _386
REMARK  155  A    between atoms: _386  and  _387
REMARK  156  A    between atoms: _390  and  _392
REMARK  157  A    between atoms: _392  and  _393
REMARK  158  A    between atoms: _392  and  _395
REMARK  159  A    between atoms: _395  and  _396
REMARK  160  A    between atoms: _396  and  _397
REMARK  161  A    between atoms: _397  and  _398
REMARK  162  A    between atoms: _398  and  _399
REMARK  163  A    between atoms: _403  and  _405
REMARK  164  A    between atoms: _405  and  _406
REMARK  165  A    between atoms: _405  and  _408
REMARK  166  A    between atoms: _408  and  _409
REMARK  167  A    between atoms: _409  and  _410
REMARK  168  A    between atoms: _410  and  _411
REMARK  169  A    between atoms: _411  and  ZN_601
REMARK  170  A    between atoms: _413  and  _415
REMARK  171  A    between atoms: _415  and  _416
REMARK  172  A    between atoms: _418  and  _420
REMARK  173  A    between atoms: _420  and  _421
REMARK  174  A    between atoms: _420  and  _423
REMARK  175  A    between atoms: _423  and  _424
REMARK  176  A    between atoms: _427  and  _429
REMARK  177  A    between atoms: _429  and  _430
REMARK  178  A    between atoms: _429  and  _432
REMARK  179  A    between atoms: _435  and  _437
REMARK  180  A    between atoms: _437  and  _438
REMARK  181  A    between atoms: _437  and  _440
REMARK  182  A    between atoms: _440  and  _441
REMARK  183  A    between atoms: _441  and  _442
REMARK  184  A    between atoms: _445  and  _447
REMARK  185  A    between atoms: _447  and  _448
REMARK  186  A    between atoms: _447  and  _450
REMARK  187  A    between atoms: _450  and  _451
REMARK  188  A    between atoms: _456  and  _458
REMARK  189  A    between atoms: _458  and  _459
REMARK  190  A    between atoms: _458  and  _461
REMARK  191  A    between atoms: _461  and  _462
REMARK  192  A    between atoms: _464  and  _466
REMARK  193  A    between atoms: _466  and  _467
REMARK  194  A    between atoms: _466  and  _469
REMARK  195  A    between atoms: _469  and  _470
REMARK  196  A    between atoms: _470  and  _471
REMARK  197  A    between atoms: _473  and  _475
REMARK  198  A    between atoms: _475  and  _476
REMARK  199  A    between atoms: _475  and  _478
REMARK  200  A    between atoms: _478  and  _479
REMARK  201  A    between atoms: _479  and  _480
REMARK  202  A    between atoms: _483  and  _485
REMARK  203  A    between atoms: _485  and  _486
REMARK  204  A    between atoms: _485  and  _488
REMARK  205  A    between atoms: _488  and  _489
REMARK  206  A    between atoms: _494  and  _496
REMARK  207  A    between atoms: _496  and  _497
REMARK  208  A    between atoms: _496  and  _499
REMARK  209  A    between atoms: _499  and  _500
REMARK  210  A    between atoms: _506  and  _508
REMARK  211  A    between atoms: _508  and  _509
REMARK  212  A    between atoms: _508  and  _511
REMARK  213  A    between atoms: _511  and  _512
REMARK  214  A    between atoms: _517  and  _518
REMARK  215  A    between atoms: _520  and  _522
REMARK  216  A    between atoms: _522  and  _523
REMARK  217  A    between atoms: _522  and  _525
REMARK  218  A    between atoms: _525  and  _526
REMARK  219  A    between atoms: _529  and  _531
REMARK  220  A    between atoms: _531  and  _532
REMARK  221  A    between atoms: _531  and  _534
REMARK  222  A    between atoms: _534  and  _535
REMARK  223  A    between atoms: _540  and  _541
REMARK  224  A    between atoms: _543  and  _545
REMARK  225  A    between atoms: _545  and  _546
REMARK  226  A    between atoms: _545  and  _548
REMARK  227  A    between atoms: _548  and  _549
REMARK  228  A    between atoms: _552  and  _554
REMARK  229  A    between atoms: _554  and  _555
REMARK  230  A    between atoms: _554  and  _557
REMARK  231  A    between atoms: _557  and  _558
REMARK  232  A    between atoms: _558  and  _559
REMARK  233  A    between atoms: _559  and  _560
REMARK  234  A    between atoms: _569  and  _571
REMARK  235  A    between atoms: _571  and  _572
REMARK  236  A    between atoms: _571  and  _574
REMARK  237  A    between atoms: _574  and  _575
REMARK  238  A    between atoms: _575  and  _576
REMARK  239  A    between atoms: _578  and  _580
REMARK  240  A    between atoms: _580  and  _581
REMARK  241  A    between atoms: _580  and  _583
REMARK  242  A    between atoms: _583  and  _584
REMARK  243  A    between atoms: _584  and  _585
REMARK  244  A    between atoms: _590  and  _592
REMARK  245  A    between atoms: _592  and  _593
REMARK  246  A    between atoms: _592  and  _595
REMARK  247  A    between atoms: _595  and  _596
REMARK                            x       y       z     vdW  Elec       q    Type
REMARK                         _______ _______ _______ _____ _____    ______ ____
ROOT
ATOM      1  CA  PHE A   4       8.507   3.670  18.645  0.00  0.00    +0.153 C 
ENDROOT
BRANCH   1   2
ATOM      2  C   PHE A   4       9.062   4.192  17.322  0.00  0.00    +0.241 C 
ATOM      3  N   TYR A   5      10.193   4.891  17.411  0.00  0.00    -0.297 N 
ATOM      4  H   TYR A   5      10.547   5.145  18.355  0.00  0.00    +0.150 HD
ATOM      5  O   PHE A   4       8.497   3.945  16.254  0.00  0.00    -0.273 OA
BRANCH   3   6
ATOM      6  CA  TYR A   5      10.956   5.316  16.244  0.00  0.00    +0.153 C 
BRANCH   6   7
ATOM      7  C   TYR A   5      11.925   4.198  15.859  0.00  0.00    +0.241 C 
ATOM      8  O   TYR A   5      13.142   4.331  15.965  0.00  0.00    -0.273 OA
ATOM      9  N   THR A   6      11.339   3.093  15.400  0.00  0.00    -0.296 N 
ATOM     10  H   THR A   6      10.346   3.152  15.098  0.00  0.00    +0.150 HD
BRANCH   9  11
ATOM     11  CA  THR A   6      12.017   1.802  15.298  0.00  0.00    +0.164 C 
BRANCH  11  12
ATOM     12  C   THR A   6      12.358   1.406  13.863  0.00  0.00    +0.229 C 
ATOM     13  O   THR A   6      11.774   1.920  12.912  0.00  0.00    -0.286 OA
ENDBRANCH  11  12
BRANCH  11  14
ATOM     14  CB  THR A   6      11.149   0.665  15.909  0.00  0.00    +0.136 C 
ATOM     15  CG2 THR A   6      10.919   0.881  17.411  0.00  0.00    +0.034 C 
BRANCH  14  16
ATOM     16  OG1 THR A   6       9.885   0.596  15.233  0.00  0.00    -0.382 OA
ATOM     17  HG1 THR A   6       9.340  -0.130  15.628  0.00  0.00    +0.210 HD
ENDBRANCH  14  16
ENDBRANCH  11  14
ENDBRANCH   9  11
ENDBRANCH   6   7
BRANCH   6  18
ATOM     18  CB  TYR A   5      11.648   6.663  16.521  0.00  0.00    +0.055 C 
BRANCH  18  19
ATOM     19  CG  TYR A   5      10.653   7.809  16.514  0.00  0.00    -0.020 A 
ATOM     20  CD2 TYR A   5       9.808   8.023  17.602  0.00  0.00    -0.001 A 
ATOM     21  CE2 TYR A   5       8.864   9.061  17.601  0.00  0.00    +0.036 A 
ATOM     22  CZ  TYR A   5       8.767   9.890  16.495  0.00  0.00    +0.134 A 
ATOM     23  CE1 TYR A   5       9.604   9.699  15.391  0.00  0.00    +0.036 A 
ATOM     24  CD1 TYR A   5      10.535   8.653  15.404  0.00  0.00    -0.001 A 
BRANCH  22  25
ATOM     25  OH  TYR A   5       7.848  10.914  16.502  0.00  0.00    -0.506 OA
ATOM     26  HH  TYR A   5       7.902  11.410  15.647  0.00  0.00    +0.292 HD
ENDBRANCH  22  25
ENDBRANCH  18  19
ENDBRANCH   6  18
ENDBRANCH   3   6
ENDBRANCH   1   2
BRANCH   1  29
ATOM     27  C   ASN A   3       9.851   3.548  20.659  0.00  0.00    +0.241 C 
ATOM     28  O   ASN A   3      10.227   2.415  20.361  0.00  0.00    -0.273 OA
ATOM     29  N   PHE A   4       9.041   4.262  19.877  0.00  0.00    -0.297 N 
ATOM     30  H   PHE A   4       8.788   5.236  20.139  0.00  0.00    +0.150 HD
BRANCH  27  31
ATOM     31  CA  ASN A   3      10.310   4.184  21.971  0.00  0.00    +0.158 C 
BRANCH  31  33
ATOM     32  C   GLU A   2      10.616   6.564  21.535  0.00  0.00    +0.241 C 
ATOM     33  N   ASN A   3       9.908   5.582  22.098  0.00  0.00    -0.297 N 
ATOM     34  H   ASN A   3       9.052   5.818  22.639  0.00  0.00    +0.150 HD
ATOM     35  O   GLU A   2      11.679   6.364  20.943  0.00  0.00    -0.273 OA
BRANCH  32  36
ATOM     36  CA  GLU A   2      10.043   7.985  21.640  0.00  0.00    +0.149 C 
BRANCH  36  38
ATOM     37  C   MET A   1       7.684   7.470  21.238  0.00  0.00    +0.238 C 
ATOM     38  N   GLU A   2       8.631   7.991  22.009  0.00  0.00    -0.297 N 
ATOM     39  H   GLU A   2       8.355   8.422  22.914  0.00  0.00    +0.150 HD
ATOM     40  O   MET A   1       7.906   6.992  20.122  0.00  0.00    -0.274 OA
BRANCH  37  41
ATOM     41  CA  MET A   1       6.265   7.486  21.819  0.00  0.00    +0.146 C 
BRANCH  41  42
ATOM     42  N   MET A   1       6.254   7.473  23.293  0.00  0.00    -0.238 NA
ATOM     43  H   MET A   1       5.838   8.279  23.802  0.00  0.00    +0.142 HD
ENDBRANCH  41  42
BRANCH  41  44
ATOM     44  CB  MET A   1       5.454   8.676  21.257  0.00  0.00    +0.038 C 
BRANCH  44  45
ATOM     45  CG  MET A   1       5.227   8.617  19.730  0.00  0.00    +0.060 C 
BRANCH  45  46
ATOM     46  SD  MET A   1       4.388   7.116  19.171  0.00  0.00    -0.139 S 
ATOM     47  CE  MET A   1       5.160   6.836  17.578  0.00  0.00    +0.069 C 
ENDBRANCH  45  46
ENDBRANCH  44  45
ENDBRANCH  41  44
ENDBRANCH  37  41
ENDBRANCH  36  38
BRANCH  36  48
ATOM     48  CB  GLU A   2      10.862   8.848  22.614  0.00  0.00    +0.041 C 
BRANCH  48  49
ATOM     49  CG  GLU A   2      11.070  10.302  22.155  0.00  0.00    +0.116 C 
BRANCH  49  50
ATOM     50  CD  GLU A   2      10.192  11.329  22.882  0.00  0.00    +0.365 C 
ATOM     51  OE2 GLU A   2       9.768  11.047  24.027  0.00  0.00    -0.246 OA
ATOM     52  OE1 GLU A   2       9.950  12.430  22.311  0.00  0.00    -0.246 OA
ENDBRANCH  49  50
ENDBRANCH  48  49
ENDBRANCH  36  48
ENDBRANCH  32  36
ENDBRANCH  31  33
BRANCH  31  53
ATOM     53  CB  ASN A   3       9.797   3.339  23.148  0.00  0.00    +0.114 C 
BRANCH  53  54
ATOM     54  CG  ASN A   3      10.672   3.444  24.389  0.00  0.00    +0.222 C 
ATOM     55  ND2 ASN A   3      10.242   2.793  25.455  0.00  0.00    -0.329 N 
ATOM     56 HD21 ASN A   3      10.788   2.826  26.340  0.00  0.00    +0.145 HD
ATOM     57 HD22 ASN A   3       9.358   2.247  25.409  0.00  0.00    +0.145 HD
ATOM     58  OD1 ASN A   3      11.710   4.102  24.394  0.00  0.00    -0.275 OA
ENDBRANCH  53  54
ENDBRANCH  31  53
ENDBRANCH  27  31
ENDBRANCH   1  29
BRANCH   1  59
ATOM     59  CB  PHE A   4       6.977   3.596  18.686  0.00  0.00    +0.055 C 
BRANCH  59  60
ATOM     60  CG  PHE A   4       6.468   2.457  19.536  0.00  0.00    -0.020 A 
ATOM     61  CD2 PHE A   4       6.219   2.639  20.898  0.00  0.00    -0.004 A 
ATOM     62  CE2 PHE A   4       5.766   1.579  21.692  0.00  0.00    -0.000 A 
ATOM     63  CZ  PHE A   4       5.564   0.322  21.124  0.00  0.00    -0.000 A 
ATOM     64  CE1 PHE A   4       5.824   0.123  19.770  0.00  0.00    -0.000 A 
ATOM     65  CD1 PHE A   4       6.284   1.190  18.984  0.00  0.00    -0.004 A 
ENDBRANCH  59  60
ENDBRANCH   1  59
TORSDOF 27
REMARK  Name = ../refined-set-2016/3ebi/3ebi_pocket.pdb
REMARK  247 active torsions:
REMARK  status: ('A' for Active; 'I' for Inactive)
REMARK    1  A    between atoms: _1  and  _3
REMARK    2  A    between atoms: _3  and  _4
REMARK    3  A    between atoms: _7  and  _9
REMARK    4  A    between atoms: _9  and  _10
REMARK    5  A    between atoms: _9  and  _12
REMARK    6  A    between atoms: _12  and  _13
REMARK    7  A    between atoms: _16  and  _18
REMARK    8  A    between atoms: _18  and  _19
REMARK    9  A    between atoms: _18  and  _21
REMARK   10  A    between atoms: _21  and  _22
REMARK   11  A    between atoms: _25  and  _27
REMARK   12  A    between atoms: _27  and  _28
REMARK   13  A    between atoms: _30  and  _32
REMARK   14  A    between atoms: _32  and  _33
REMARK   15  A    between atoms: _32  and  _35
REMARK   16  A    between atoms: _35  and  _36
REMARK   17  A    between atoms: _36  and  _37
REMARK   18  A    between atoms: _42  and  _44
REMARK   19  A    between atoms: _44  and  _45
REMARK   20  A    between atoms: _44  and  _47
REMARK   21  A    between atoms: _49  and  _51
REMARK   22  A    between atoms: _51  and  _52
REMARK   23  A    between atoms: _51  and  _54
REMARK   24  A    between atoms: _54  and  _55
REMARK   25  A    between atoms: _55  and  _56
REMARK   26  A    between atoms: _59  and  _61
REMARK   27  A    between atoms: _61  and  _62
REMARK   28  A    between atoms: _65  and  _67
REMARK   29  A    between atoms: _67  and  _68
REMARK   30  A    between atoms: _67  and  _70
REMARK   31  A    between atoms: _70  and  _71
REMARK   32  A    between atoms: _74  and  _76
REMARK   33  A    between atoms: _76  and  _77
REMARK   34  A    between atoms: _79  and  _81
REMARK   35  A    between atoms: _81  and  _82
REMARK   36  A    between atoms: _81  and  _84
REMARK   37  A    between atoms: _84  and  _85
REMARK   38  A    between atoms: _90  and  _91
REMARK   39  A    between atoms: _93  and  _95
REMARK   40  A    between atoms: _95  and  _96
REMARK   41  A    between atoms: _95  and  _98
REMARK   42  A    between atoms: _98  and  _99
REMARK   43  A    between atoms: _102  and  _104
REMARK   44  A    between atoms: _104  and  _105
REMARK   45  A    between atoms: _104  and  _107
REMARK   46  A    between atoms: _107  and  _108
REMARK   47  A    between atoms: _114  and  _116
REMARK   48  A    between atoms: _116  and  _117
REMARK   49  A    between atoms: _116  and  _119
REMARK   50  A    between atoms: _119  and  _120
REMARK   51  A    between atoms: _125  and  _127
REMARK   52  A    between atoms: _127  and  _128
REMARK   53  A    between atoms: _127  and  _130
REMARK   54  A    between atoms: _133  and  _135
REMARK   55  A    between atoms: _135  and  _136
REMARK   56  A    between atoms: _138  and  _140
REMARK   57  A    between atoms: _140  and  _141
REMARK   58  A    between atoms: _144  and  _146
REMARK   59  A    between atoms: _146  and  _147
REMARK   60  A    between atoms: _146  and  _149
REMARK   61  A    between atoms: _149  and  _150
REMARK   62  A    between atoms: _150  and  _151
REMARK   63  A    between atoms: _153  and  _155
REMARK   64  A    between atoms: _155  and  _156
REMARK   65  A    between atoms: _155  and  _158
REMARK   66  A    between atoms: _158  and  _159
REMARK   67  A    between atoms: _159  and  _160
REMARK   68  A    between atoms: _163  and  _165
REMARK   69  A    between atoms: _165  and  _166
REMARK   70  A    between atoms: _165  and  _168
REMARK   71  A    between atoms: _168  and  _169
REMARK   72  A    between atoms: _174  and  _176
REMARK   73  A    between atoms: _176  and  _177
REMARK   74  A    between atoms: _176  and  _179
REMARK   75  A    between atoms: _179  and  _180
REMARK   76  A    between atoms: _183  and  _185
REMARK   77  A    between atoms: _185  and  _186
REMARK   78  A    between atoms: _185  and  _188
REMARK   79  A    between atoms: _188  and  _189
REMARK   80  A    between atoms: _195  and  _197
REMARK   81  A    between atoms: _197  and  _198
REMARK   82  A    between atoms: _197  and  _200
REMARK   83  A    between atoms: _200  and  _201
REMARK   84  A    between atoms: _206  and  _208
REMARK   85  A    between atoms: _208  and  _209
REMARK   86  A    between atoms: _208  and  _211
REMARK   87  A    between atoms: _211  and  _212
REMARK   88  A    between atoms: _217  and  _219
REMARK   89  A    between atoms: _219  and  _220
REMARK   90  A    between atoms: _219  and  _222
REMARK   91  A    between atoms: _222  and  _223
REMARK   92  A    between atoms: _225  and  _227
REMARK   93  A    between atoms: _227  and  _228
REMARK   94  A    between atoms: _227  and  _230
REMARK   95  A    between atoms: _230  and  _231
REMARK   96  A    between atoms: _237  and  _239
REMARK   97  A    between atoms: _239  and  _240
REMARK   98  A    between atoms: _243  and  _245
REMARK   99  A    between atoms: _245  and  _246
REMARK  100  A    between atoms: _245  and  _248
REMARK  101  A    between atoms: _248  and  _249
REMARK  102  A    between atoms: _249  and  _250
REMARK  103  A    between atoms: _250  and  _251
REMARK  104  A    between atoms: _260  and  _262
REMARK  105  A    between atoms: _262  and  _263
REMARK  106  A    between atoms: _262  and  _265
REMARK  107  A    between atoms: _265  and  _266
REMARK  108  A    between atoms: _269  and  _271
REMARK  109  A    between atoms: _271  and  _272
REMARK  110  A    between atoms: _271  and  _274
REMARK  111  A    between atoms: _274  and  _275
REMARK  112  A    between atoms: _278  and  _280
REMARK  113  A    between atoms: _280  and  _281
REMARK  114  A    between atoms: _280  and  _283
REMARK  115  A    between atoms: _283  and  _284
REMARK  116  A    between atoms: _287  and  _289
REMARK  117  A    between atoms: _289  and  _290
REMARK  118  A    between atoms: _289  and  _292
REMARK  119  A    between atoms: _295  and  _297
REMARK  120  A    between atoms: _297  and  _298
REMARK  121  A    between atoms: _297  and  _300
REMARK  122  A    between atoms: _303  and  _305
REMARK  123  A    between atoms: _305  and  _306
REMARK  124  A    between atoms: _308  and  _310
REMARK  125  A    between atoms: _310  and  _311
REMARK  126  A    between atoms: _310  and  _313
REMARK  127  A    between atoms: _313  and  _314
REMARK  128  A    between atoms: _318  and  ZN_601
REMARK  129  A    between atoms: _319  and  _321
REMARK  130  A    between atoms: _321  and  _322
REMARK  131  A    between atoms: _321  and  _324
REMARK  132  A    between atoms: _324  and  _325
REMARK  133  A    between atoms: _325  and  _326
REMARK  134  A    between atoms: _329  and  _331
REMARK  135  A    between atoms: _331  and  _332
REMARK  136  A    between atoms: _331  and  _334
REMARK  137  A    between atoms: _334  and  _335
REMARK  138  A    between atoms: _340  and  _341
REMARK  139  A    between atoms: _343  and  _345
REMARK  140  A    between atoms: _345  and  _346
REMARK  141  A    between atoms: _345  and  _348
REMARK  142  A    between atoms: _348  and  _349
REMARK  143  A    between atoms: _353  and  ZN_601
REMARK  144  A    between atoms: _354  and  _356
REMARK  145  A    between atoms: _356  and  _357
REMARK  146  A    between atoms: _356  and  _359
REMARK  147  A    between atoms: _359  and  _360
REMARK  148  A    between atoms: _365  and  _367
REMARK  149  A    between atoms: _367  and  _368
REMARK  150  A    between atoms: _367  and  _370
REMARK  151  A    between atoms: _370  and  _371
REMARK  152  A    between atoms: _381  and  _383
REMARK  153  A    between atoms: _383  and  _384
REMARK  154  A    between atoms: _383  and  _386
REMARK  155  A    between atoms: _386  and  _387
REMARK  156  A    between atoms: _390  and  _392
REMARK  157  A    between atoms: _392  and  _393
REMARK  158  A    between atoms: _392  and  _395
REMARK  159  A    between atoms: _395  and  _396
REMARK  160  A    between atoms: _396  and  _397
REMARK  161  A    between atoms: _397  and  _398
REMARK  162  A    between atoms: _398  and  _399
REMARK  163  A    between atoms: _403  and  _405
REMARK  164  A    between atoms: _405  and  _406
REMARK  165  A    between atoms: _405  and  _408
REMARK  166  A    between atoms: _408  and  _409
REMARK  167  A    between atoms: _409  and  _410
REMARK  168  A    between atoms: _410  and  _411
REMARK  169  A    between atoms: _411  and  ZN_601
REMARK  170  A    between atoms: _413  and  _415
REMARK  171  A    between atoms: _415  and  _416
REMARK  172  A    between atoms: _418  and  _420
REMARK  173  A    between atoms: _420  and  _421
REMARK  174  A    between atoms: _420  and  _423
REMARK  175  A    between atoms: _423  and  _424
REMARK  176  A    between atoms: _427  and  _429
REMARK  177  A    between atoms: _429  and  _430
REMARK  178  A    between atoms: _429  and  _432
REMARK  179  A    between atoms: _435  and  _437
REMARK  180  A    between atoms: _437  and  _438
REMARK  181  A    between atoms: _437  and  _440
REMARK  182  A    between atoms: _440  and  _441
REMARK  183  A    between atoms: _441  and  _442
REMARK  184  A    between atoms: _445  and  _447
REMARK  185  A    between atoms: _447  and  _448
REMARK  186  A    between atoms: _447  and  _450
REMARK  187  A    between atoms: _450  and  _451
REMARK  188  A    between atoms: _456  and  _458
REMARK  189  A    between atoms: _458  and  _459
REMARK  190  A    between atoms: _458  and  _461
REMARK  191  A    between atoms: _461  and  _462
REMARK  192  A    between atoms: _464  and  _466
REMARK  193  A    between atoms: _466  and  _467
REMARK  194  A    between atoms: _466  and  _469
REMARK  195  A    between atoms: _469  and  _470
REMARK  196  A    between atoms: _470  and  _471
REMARK  197  A    between atoms: _473  and  _475
REMARK  198  A    between atoms: _475  and  _476
REMARK  199  A    between atoms: _475  and  _478
REMARK  200  A    between atoms: _478  and  _479
REMARK  201  A    between atoms: _479  and  _480
REMARK  202  A    between atoms: _483  and  _485
REMARK  203  A    between atoms: _485  and  _486
REMARK  204  A    between atoms: _485  and  _488
REMARK  205  A    between atoms: _488  and  _489
REMARK  206  A    between atoms: _494  and  _496
REMARK  207  A    between atoms: _496  and  _497
REMARK  208  A    between atoms: _496  and  _499
REMARK  209  A    between atoms: _499  and  _500
REMARK  210  A    between atoms: _506  and  _508
REMARK  211  A    between atoms: _508  and  _509
REMARK  212  A    between atoms: _508  and  _511
REMARK  213  A    between atoms: _511  and  _512
REMARK  214  A    between atoms: _517  and  _518
REMARK  215  A    between atoms: _520  and  _522
REMARK  216  A    between atoms: _522  and  _523
REMARK  217  A    between atoms: _522  and  _525
REMARK  218  A    between atoms: _525  and  _526
REMARK  219  A    between atoms: _529  and  _531
REMARK  220  A    between atoms: _531  and  _532
REMARK  221  A    between atoms: _531  and  _534
REMARK  222  A    between atoms: _534  and  _535
REMARK  223  A    between atoms: _540  and  _541
REMARK  224  A    between atoms: _543  and  _545
REMARK  225  A    between atoms: _545  and  _546
REMARK  226  A    between atoms: _545  and  _548
REMARK  227  A    between atoms: _548  and  _549
REMARK  228  A    between atoms: _552  and  _554
REMARK  229  A    between atoms: _554  and  _555
REMARK  230  A    between atoms: _554  and  _557
REMARK  231  A    between atoms: _557  and  _558
REMARK  232  A    between atoms: _558  and  _559
REMARK  233  A    between atoms: _559  and  _560
REMARK  234  A    between atoms: _569  and  _571
REMARK  235  A    between atoms: _571  and  _572
REMARK  236  A    between atoms: _571  and  _574
REMARK  237  A    between atoms: _574  and  _575
REMARK  238  A    between atoms: _575  and  _576
REMARK  239  A    between atoms: _578  and  _580
REMARK  240  A    between atoms: _580  and  _581
REMARK  241  A    between atoms: _580  and  _583
REMARK  242  A    between atoms: _583  and  _584
REMARK  243  A    between atoms: _584  and  _585
REMARK  244  A    between atoms: _590  and  _592
REMARK  245  A    between atoms: _592  and  _593
REMARK  246  A    between atoms: _592  and  _595
REMARK  247  A    between atoms: _595  and  _596
REMARK                            x       y       z     vdW  Elec       q    Type
REMARK                         _______ _______ _______ _____ _____    ______ ____
ROOT
ATOM      1  CA  TYR A   1      10.979   3.018   9.455  0.00  0.00    +0.149 C 
ENDROOT
BRANCH   1   2
ATOM      2  C   TYR A   1      11.255   2.082   8.276  0.00  0.00    +0.239 C 
ATOM      3  N   ASP A   2      11.904   0.965   8.564  0.00  0.00    -0.298 N 
ATOM      4  H   ASP A   2      11.973   0.649   9.552  0.00  0.00    +0.150 HD
ATOM      5  O   TYR A   1      10.919   2.388   7.129  0.00  0.00    -0.274 OA
BRANCH   3   6
ATOM      6  CA  ASP A   2      12.526   0.169   7.501  0.00  0.00    +0.148 C 
BRANCH   6   7
ATOM      7  C   ASP A   2      11.593  -0.893   6.948  0.00  0.00    +0.227 C 
ATOM      8  O   ASP A   2      11.587  -1.126   5.744  0.00  0.00    -0.286 OA
ENDBRANCH   6   7
BRANCH   6   9
ATOM      9  CB  ASP A   2      13.861  -0.404   7.973  0.00  0.00    +0.142 C 
BRANCH   9  10
ATOM     10  CG  ASP A   2      14.866   0.699   8.325  0.00  0.00    +0.367 C 
ATOM     11  OD2 ASP A   2      15.493   0.610   9.396  0.00  0.00    -0.246 OA
ATOM     12  OD1 ASP A   2      15.013   1.659   7.530  0.00  0.00    -0.246 OA
ENDBRANCH   9  10
ENDBRANCH   6   9
ENDBRANCH   3   6
ENDBRANCH   1   2
BRANCH   1  13
ATOM     13  N   TYR A   1      10.205   2.400  10.526  0.00  0.00    -0.238 NA
ATOM     14  H   TYR A   1      10.704   2.067  11.376  0.00  0.00    +0.142 HD
ENDBRANCH   1  13
BRANCH   1  15
ATOM     15  CB  TYR A   1      12.316   3.515   9.997  0.00  0.00    +0.053 C 
BRANCH  15  16
ATOM     16  CG  TYR A   1      12.250   4.875  10.648  0.00  0.00    -0.020 A 
ATOM     17  CD2 TYR A   1      11.563   5.069  11.852  0.00  0.00    -0.001 A 
ATOM     18  CE2 TYR A   1      11.505   6.336  12.460  0.00  0.00    +0.036 A 
ATOM     19  CZ  TYR A   1      12.127   7.412  11.837  0.00  0.00    +0.134 A 
ATOM     20  CE1 TYR A   1      12.806   7.237  10.641  0.00  0.00    +0.036 A 
ATOM     21  CD1 TYR A   1      12.865   5.977  10.051  0.00  0.00    -0.001 A 
BRANCH  19  22
ATOM     22  OH  TYR A   1      12.070   8.663  12.407  0.00  0.00    -0.506 OA
ATOM     23  HH  TYR A   1      12.561   9.307  11.837  0.00  0.00    +0.292 HD
ENDBRANCH  19  22
ENDBRANCH  15  16
ENDBRANCH   1  15
TORSDOF 9
REMARK  Name = ../refined-set-2016/3ebi/3ebi_pocket.pdb
REMARK  247 active torsions:
REMARK  status: ('A' for Active; 'I' for Inactive)
REMARK    1  A    between atoms: _1  and  _3
REMARK    2  A    between atoms: _3  and  _4
REMARK    3  A    between atoms: _7  and  _9
REMARK    4  A    between atoms: _9  and  _10
REMARK    5  A    between atoms: _9  and  _12
REMARK    6  A    between atoms: _12  and  _13
REMARK    7  A    between atoms: _16  and  _18
REMARK    8  A    between atoms: _18  and  _19
REMARK    9  A    between atoms: _18  and  _21
REMARK   10  A    between atoms: _21  and  _22
REMARK   11  A    between atoms: _25  and  _27
REMARK   12  A    between atoms: _27  and  _28
REMARK   13  A    between atoms: _30  and  _32
REMARK   14  A    between atoms: _32  and  _33
REMARK   15  A    between atoms: _32  and  _35
REMARK   16  A    between atoms: _35  and  _36
REMARK   17  A    between atoms: _36  and  _37
REMARK   18  A    between atoms: _42  and  _44
REMARK   19  A    between atoms: _44  and  _45
REMARK   20  A    between atoms: _44  and  _47
REMARK   21  A    between atoms: _49  and  _51
REMARK   22  A    between atoms: _51  and  _52
REMARK   23  A    between atoms: _51  and  _54
REMARK   24  A    between atoms: _54  and  _55
REMARK   25  A    between atoms: _55  and  _56
REMARK   26  A    between atoms: _59  and  _61
REMARK   27  A    between atoms: _61  and  _62
REMARK   28  A    between atoms: _65  and  _67
REMARK   29  A    between atoms: _67  and  _68
REMARK   30  A    between atoms: _67  and  _70
REMARK   31  A    between atoms: _70  and  _71
REMARK   32  A    between atoms: _74  and  _76
REMARK   33  A    between atoms: _76  and  _77
REMARK   34  A    between atoms: _79  and  _81
REMARK   35  A    between atoms: _81  and  _82
REMARK   36  A    between atoms: _81  and  _84
REMARK   37  A    between atoms: _84  and  _85
REMARK   38  A    between atoms: _90  and  _91
REMARK   39  A    between atoms: _93  and  _95
REMARK   40  A    between atoms: _95  and  _96
REMARK   41  A    between atoms: _95  and  _98
REMARK   42  A    between atoms: _98  and  _99
REMARK   43  A    between atoms: _102  and  _104
REMARK   44  A    between atoms: _104  and  _105
REMARK   45  A    between atoms: _104  and  _107
REMARK   46  A    between atoms: _107  and  _108
REMARK   47  A    between atoms: _114  and  _116
REMARK   48  A    between atoms: _116  and  _117
REMARK   49  A    between atoms: _116  and  _119
REMARK   50  A    between atoms: _119  and  _120
REMARK   51  A    between atoms: _125  and  _127
REMARK   52  A    between atoms: _127  and  _128
REMARK   53  A    between atoms: _127  and  _130
REMARK   54  A    between atoms: _133  and  _135
REMARK   55  A    between atoms: _135  and  _136
REMARK   56  A    between atoms: _138  and  _140
REMARK   57  A    between atoms: _140  and  _141
REMARK   58  A    between atoms: _144  and  _146
REMARK   59  A    between atoms: _146  and  _147
REMARK   60  A    between atoms: _146  and  _149
REMARK   61  A    between atoms: _149  and  _150
REMARK   62  A    between atoms: _150  and  _151
REMARK   63  A    between atoms: _153  and  _155
REMARK   64  A    between atoms: _155  and  _156
REMARK   65  A    between atoms: _155  and  _158
REMARK   66  A    between atoms: _158  and  _159
REMARK   67  A    between atoms: _159  and  _160
REMARK   68  A    between atoms: _163  and  _165
REMARK   69  A    between atoms: _165  and  _166
REMARK   70  A    between atoms: _165  and  _168
REMARK   71  A    between atoms: _168  and  _169
REMARK   72  A    between atoms: _174  and  _176
REMARK   73  A    between atoms: _176  and  _177
REMARK   74  A    between atoms: _176  and  _179
REMARK   75  A    between atoms: _179  and  _180
REMARK   76  A    between atoms: _183  and  _185
REMARK   77  A    between atoms: _185  and  _186
REMARK   78  A    between atoms: _185  and  _188
REMARK   79  A    between atoms: _188  and  _189
REMARK   80  A    between atoms: _195  and  _197
REMARK   81  A    between atoms: _197  and  _198
REMARK   82  A    between atoms: _197  and  _200
REMARK   83  A    between atoms: _200  and  _201
REMARK   84  A    between atoms: _206  and  _208
REMARK   85  A    between atoms: _208  and  _209
REMARK   86  A    between atoms: _208  and  _211
REMARK   87  A    between atoms: _211  and  _212
REMARK   88  A    between atoms: _217  and  _219
REMARK   89  A    between atoms: _219  and  _220
REMARK   90  A    between atoms: _219  and  _222
REMARK   91  A    between atoms: _222  and  _223
REMARK   92  A    between atoms: _225  and  _227
REMARK   93  A    between atoms: _227  and  _228
REMARK   94  A    between atoms: _227  and  _230
REMARK   95  A    between atoms: _230  and  _231
REMARK   96  A    between atoms: _237  and  _239
REMARK   97  A    between atoms: _239  and  _240
REMARK   98  A    between atoms: _243  and  _245
REMARK   99  A    between atoms: _245  and  _246
REMARK  100  A    between atoms: _245  and  _248
REMARK  101  A    between atoms: _248  and  _249
REMARK  102  A    between atoms: _249  and  _250
REMARK  103  A    between atoms: _250  and  _251
REMARK  104  A    between atoms: _260  and  _262
REMARK  105  A    between atoms: _262  and  _263
REMARK  106  A    between atoms: _262  and  _265
REMARK  107  A    between atoms: _265  and  _266
REMARK  108  A    between atoms: _269  and  _271
REMARK  109  A    between atoms: _271  and  _272
REMARK  110  A    between atoms: _271  and  _274
REMARK  111  A    between atoms: _274  and  _275
REMARK  112  A    between atoms: _278  and  _280
REMARK  113  A    between atoms: _280  and  _281
REMARK  114  A    between atoms: _280  and  _283
REMARK  115  A    between atoms: _283  and  _284
REMARK  116  A    between atoms: _287  and  _289
REMARK  117  A    between atoms: _289  and  _290
REMARK  118  A    between atoms: _289  and  _292
REMARK  119  A    between atoms: _295  and  _297
REMARK  120  A    between atoms: _297  and  _298
REMARK  121  A    between atoms: _297  and  _300
REMARK  122  A    between atoms: _303  and  _305
REMARK  123  A    between atoms: _305  and  _306
REMARK  124  A    between atoms: _308  and  _310
REMARK  125  A    between atoms: _310  and  _311
REMARK  126  A    between atoms: _310  and  _313
REMARK  127  A    between atoms: _313  and  _314
REMARK  128  A    between atoms: _318  and  ZN_601
REMARK  129  A    between atoms: _319  and  _321
REMARK  130  A    between atoms: _321  and  _322
REMARK  131  A    between atoms: _321  and  _324
REMARK  132  A    between atoms: _324  and  _325
REMARK  133  A    between atoms: _325  and  _326
REMARK  134  A    between atoms: _329  and  _331
REMARK  135  A    between atoms: _331  and  _332
REMARK  136  A    between atoms: _331  and  _334
REMARK  137  A    between atoms: _334  and  _335
REMARK  138  A    between atoms: _340  and  _341
REMARK  139  A    between atoms: _343  and  _345
REMARK  140  A    between atoms: _345  and  _346
REMARK  141  A    between atoms: _345  and  _348
REMARK  142  A    between atoms: _348  and  _349
REMARK  143  A    between atoms: _353  and  ZN_601
REMARK  144  A    between atoms: _354  and  _356
REMARK  145  A    between atoms: _356  and  _357
REMARK  146  A    between atoms: _356  and  _359
REMARK  147  A    between atoms: _359  and  _360
REMARK  148  A    between atoms: _365  and  _367
REMARK  149  A    between atoms: _367  and  _368
REMARK  150  A    between atoms: _367  and  _370
REMARK  151  A    between atoms: _370  and  _371
REMARK  152  A    between atoms: _381  and  _383
REMARK  153  A    between atoms: _383  and  _384
REMARK  154  A    between atoms: _383  and  _386
REMARK  155  A    between atoms: _386  and  _387
REMARK  156  A    between atoms: _390  and  _392
REMARK  157  A    between atoms: _392  and  _393
REMARK  158  A    between atoms: _392  and  _395
REMARK  159  A    between atoms: _395  and  _396
REMARK  160  A    between atoms: _396  and  _397
REMARK  161  A    between atoms: _397  and  _398
REMARK  162  A    between atoms: _398  and  _399
REMARK  163  A    between atoms: _403  and  _405
REMARK  164  A    between atoms: _405  and  _406
REMARK  165  A    between atoms: _405  and  _408
REMARK  166  A    between atoms: _408  and  _409
REMARK  167  A    between atoms: _409  and  _410
REMARK  168  A    between atoms: _410  and  _411
REMARK  169  A    between atoms: _411  and  ZN_601
REMARK  170  A    between atoms: _413  and  _415
REMARK  171  A    between atoms: _415  and  _416
REMARK  172  A    between atoms: _418  and  _420
REMARK  173  A    between atoms: _420  and  _421
REMARK  174  A    between atoms: _420  and  _423
REMARK  175  A    between atoms: _423  and  _424
REMARK  176  A    between atoms: _427  and  _429
REMARK  177  A    between atoms: _429  and  _430
REMARK  178  A    between atoms: _429  and  _432
REMARK  179  A    between atoms: _435  and  _437
REMARK  180  A    between atoms: _437  and  _438
REMARK  181  A    between atoms: _437  and  _440
REMARK  182  A    between atoms: _440  and  _441
REMARK  183  A    between atoms: _441  and  _442
REMARK  184  A    between atoms: _445  and  _447
REMARK  185  A    between atoms: _447  and  _448
REMARK  186  A    between atoms: _447  and  _450
REMARK  187  A    between atoms: _450  and  _451
REMARK  188  A    between atoms: _456  and  _458
REMARK  189  A    between atoms: _458  and  _459
REMARK  190  A    between atoms: _458  and  _461
REMARK  191  A    between atoms: _461  and  _462
REMARK  192  A    between atoms: _464  and  _466
REMARK  193  A    between atoms: _466  and  _467
REMARK  194  A    between atoms: _466  and  _469
REMARK  195  A    between atoms: _469  and  _470
REMARK  196  A    between atoms: _470  and  _471
REMARK  197  A    between atoms: _473  and  _475
REMARK  198  A    between atoms: _475  and  _476
REMARK  199  A    between atoms: _475  and  _478
REMARK  200  A    between atoms: _478  and  _479
REMARK  201  A    between atoms: _479  and  _480
REMARK  202  A    between atoms: _483  and  _485
REMARK  203  A    between atoms: _485  and  _486
REMARK  204  A    between atoms: _485  and  _488
REMARK  205  A    between atoms: _488  and  _489
REMARK  206  A    between atoms: _494  and  _496
REMARK  207  A    between atoms: _496  and  _497
REMARK  208  A    between atoms: _496  and  _499
REMARK  209  A    between atoms: _499  and  _500
REMARK  210  A    between atoms: _506  and  _508
REMARK  211  A    between atoms: _508  and  _509
REMARK  212  A    between atoms: _508  and  _511
REMARK  213  A    between atoms: _511  and  _512
REMARK  214  A    between atoms: _517  and  _518
REMARK  215  A    between atoms: _520  and  _522
REMARK  216  A    between atoms: _522  and  _523
REMARK  217  A    between atoms: _522  and  _525
REMARK  218  A    between atoms: _525  and  _526
REMARK  219  A    between atoms: _529  and  _531
REMARK  220  A    between atoms: _531  and  _532
REMARK  221  A    between atoms: _531  and  _534
REMARK  222  A    between atoms: _534  and  _535
REMARK  223  A    between atoms: _540  and  _541
REMARK  224  A    between atoms: _543  and  _545
REMARK  225  A    between atoms: _545  and  _546
REMARK  226  A    between atoms: _545  and  _548
REMARK  227  A    between atoms: _548  and  _549
REMARK  228  A    between atoms: _552  and  _554
REMARK  229  A    between atoms: _554  and  _555
REMARK  230  A    between atoms: _554  and  _557
REMARK  231  A    between atoms: _557  and  _558
REMARK  232  A    between atoms: _558  and  _559
REMARK  233  A    between atoms: _559  and  _560
REMARK  234  A    between atoms: _569  and  _571
REMARK  235  A    between atoms: _571  and  _572
REMARK  236  A    between atoms: _571  and  _574
REMARK  237  A    between atoms: _574  and  _575
REMARK  238  A    between atoms: _575  and  _576
REMARK  239  A    between atoms: _578  and  _580
REMARK  240  A    between atoms: _580  and  _581
REMARK  241  A    between atoms: _580  and  _583
REMARK  242  A    between atoms: _583  and  _584
REMARK  243  A    between atoms: _584  and  _585
REMARK  244  A    between atoms: _590  and  _592
REMARK  245  A    between atoms: _592  and  _593
REMARK  246  A    between atoms: _592  and  _595
REMARK  247  A    between atoms: _595  and  _596
REMARK                            x       y       z     vdW  Elec       q    Type
REMARK                         _______ _______ _______ _____ _____    ______ ____
ROOT
ATOM      1  NE  ARG A   1      24.242   7.954  19.044  0.00  0.00    -0.265 N 
ATOM      2  CZ  ARG A   1      23.380   8.965  19.055  0.00  0.00    +0.342 C 
ATOM      3  NH2 ARG A   1      22.188   8.839  19.642  0.00  0.00    -0.292 N 
ATOM      4 HH21 ARG A   1      21.925   7.942  20.098  0.00  0.00    +0.255 HD
ATOM      5 HH22 ARG A   1      21.522   9.638  19.644  0.00  0.00    +0.255 HD
ATOM      6  NH1 ARG A   1      23.713  10.108  18.466  0.00  0.00    -0.292 N 
ATOM      7 HH11 ARG A   1      23.047  10.907  18.468  0.00  0.00    +0.255 HD
ATOM      8 HH12 ARG A   1      24.639  10.204  18.003  0.00  0.00    +0.255 HD
ATOM      9  HE  ARG A   1      25.152   8.105  18.563  0.00  0.00    +0.259 HD
ENDROOT
BRANCH   1  10
ATOM     10  CD  ARG A   1      24.012   6.644  19.656  0.00  0.00    +0.174 C 
BRANCH  10  11
ATOM     11  CG  ARG A   1      25.046   6.311  20.741  0.00  0.00    +0.045 C 
BRANCH  11  12
ATOM     12  CB  ARG A   1      26.431   6.009  20.157  0.00  0.00    +0.029 C 
BRANCH  12  13
ATOM     13  CA  ARG A   1      27.466   5.492  21.171  0.00  0.00    +0.133 C 
BRANCH  13  14
ATOM     14  N   ARG A   1      27.818   6.528  22.148  0.00  0.00    -0.239 NA
ATOM     15  H   ARG A   1      27.409   7.478  22.036  0.00  0.00    +0.142 HD
ENDBRANCH  13  14
BRANCH  13  16
ATOM     16  C   ARG A   1      28.707   4.954  20.440  0.00  0.00    +0.224 C 
ATOM     17  O   ARG A   1      28.783   3.759  20.150  0.00  0.00    -0.287 OA
ENDBRANCH  13  16
ENDBRANCH  12  13
ENDBRANCH  11  12
ENDBRANCH  10  11
ENDBRANCH   1  10
TORSDOF 6
REMARK  Name = ../refined-set-2016/3ebi/3ebi_pocket.pdb
REMARK  247 active torsions:
REMARK  status: ('A' for Active; 'I' for Inactive)
REMARK    1  A    between atoms: _1  and  _3
REMARK    2  A    between atoms: _3  and  _4
REMARK    3  A    between atoms: _7  and  _9
REMARK    4  A    between atoms: _9  and  _10
REMARK    5  A    between atoms: _9  and  _12
REMARK    6  A    between atoms: _12  and  _13
REMARK    7  A    between atoms: _16  and  _18
REMARK    8  A    between atoms: _18  and  _19
REMARK    9  A    between atoms: _18  and  _21
REMARK   10  A    between atoms: _21  and  _22
REMARK   11  A    between atoms: _25  and  _27
REMARK   12  A    between atoms: _27  and  _28
REMARK   13  A    between atoms: _30  and  _32
REMARK   14  A    between atoms: _32  and  _33
REMARK   15  A    between atoms: _32  and  _35
REMARK   16  A    between atoms: _35  and  _36
REMARK   17  A    between atoms: _36  and  _37
REMARK   18  A    between atoms: _42  and  _44
REMARK   19  A    between atoms: _44  and  _45
REMARK   20  A    between atoms: _44  and  _47
REMARK   21  A    between atoms: _49  and  _51
REMARK   22  A    between atoms: _51  and  _52
REMARK   23  A    between atoms: _51  and  _54
REMARK   24  A    between atoms: _54  and  _55
REMARK   25  A    between atoms: _55  and  _56
REMARK   26  A    between atoms: _59  and  _61
REMARK   27  A    between atoms: _61  and  _62
REMARK   28  A    between atoms: _65  and  _67
REMARK   29  A    between atoms: _67  and  _68
REMARK   30  A    between atoms: _67  and  _70
REMARK   31  A    between atoms: _70  and  _71
REMARK   32  A    between atoms: _74  and  _76
REMARK   33  A    between atoms: _76  and  _77
REMARK   34  A    between atoms: _79  and  _81
REMARK   35  A    between atoms: _81  and  _82
REMARK   36  A    between atoms: _81  and  _84
REMARK   37  A    between atoms: _84  and  _85
REMARK   38  A    between atoms: _90  and  _91
REMARK   39  A    between atoms: _93  and  _95
REMARK   40  A    between atoms: _95  and  _96
REMARK   41  A    between atoms: _95  and  _98
REMARK   42  A    between atoms: _98  and  _99
REMARK   43  A    between atoms: _102  and  _104
REMARK   44  A    between atoms: _104  and  _105
REMARK   45  A    between atoms: _104  and  _107
REMARK   46  A    between atoms: _107  and  _108
REMARK   47  A    between atoms: _114  and  _116
REMARK   48  A    between atoms: _116  and  _117
REMARK   49  A    between atoms: _116  and  _119
REMARK   50  A    between atoms: _119  and  _120
REMARK   51  A    between atoms: _125  and  _127
REMARK   52  A    between atoms: _127  and  _128
REMARK   53  A    between atoms: _127  and  _130
REMARK   54  A    between atoms: _133  and  _135
REMARK   55  A    between atoms: _135  and  _136
REMARK   56  A    between atoms: _138  and  _140
REMARK   57  A    between atoms: _140  and  _141
REMARK   58  A    between atoms: _144  and  _146
REMARK   59  A    between atoms: _146  and  _147
REMARK   60  A    between atoms: _146  and  _149
REMARK   61  A    between atoms: _149  and  _150
REMARK   62  A    between atoms: _150  and  _151
REMARK   63  A    between atoms: _153  and  _155
REMARK   64  A    between atoms: _155  and  _156
REMARK   65  A    between atoms: _155  and  _158
REMARK   66  A    between atoms: _158  and  _159
REMARK   67  A    between atoms: _159  and  _160
REMARK   68  A    between atoms: _163  and  _165
REMARK   69  A    between atoms: _165  and  _166
REMARK   70  A    between atoms: _165  and  _168
REMARK   71  A    between atoms: _168  and  _169
REMARK   72  A    between atoms: _174  and  _176
REMARK   73  A    between atoms: _176  and  _177
REMARK   74  A    between atoms: _176  and  _179
REMARK   75  A    between atoms: _179  and  _180
REMARK   76  A    between atoms: _183  and  _185
REMARK   77  A    between atoms: _185  and  _186
REMARK   78  A    between atoms: _185  and  _188
REMARK   79  A    between atoms: _188  and  _189
REMARK   80  A    between atoms: _195  and  _197
REMARK   81  A    between atoms: _197  and  _198
REMARK   82  A    between atoms: _197  and  _200
REMARK   83  A    between atoms: _200  and  _201
REMARK   84  A    between atoms: _206  and  _208
REMARK   85  A    between atoms: _208  and  _209
REMARK   86  A    between atoms: _208  and  _211
REMARK   87  A    between atoms: _211  and  _212
REMARK   88  A    between atoms: _217  and  _219
REMARK   89  A    between atoms: _219  and  _220
REMARK   90  A    between atoms: _219  and  _222
REMARK   91  A    between atoms: _222  and  _223
REMARK   92  A    between atoms: _225  and  _227
REMARK   93  A    between atoms: _227  and  _228
REMARK   94  A    between atoms: _227  and  _230
REMARK   95  A    between atoms: _230  and  _231
REMARK   96  A    between atoms: _237  and  _239
REMARK   97  A    between atoms: _239  and  _240
REMARK   98  A    between atoms: _243  and  _245
REMARK   99  A    between atoms: _245  and  _246
REMARK  100  A    between atoms: _245  and  _248
REMARK  101  A    between atoms: _248  and  _249
REMARK  102  A    between atoms: _249  and  _250
REMARK  103  A    between atoms: _250  and  _251
REMARK  104  A    between atoms: _260  and  _262
REMARK  105  A    between atoms: _262  and  _263
REMARK  106  A    between atoms: _262  and  _265
REMARK  107  A    between atoms: _265  and  _266
REMARK  108  A    between atoms: _269  and  _271
REMARK  109  A    between atoms: _271  and  _272
REMARK  110  A    between atoms: _271  and  _274
REMARK  111  A    between atoms: _274  and  _275
REMARK  112  A    between atoms: _278  and  _280
REMARK  113  A    between atoms: _280  and  _281
REMARK  114  A    between atoms: _280  and  _283
REMARK  115  A    between atoms: _283  and  _284
REMARK  116  A    between atoms: _287  and  _289
REMARK  117  A    between atoms: _289  and  _290
REMARK  118  A    between atoms: _289  and  _292
REMARK  119  A    between atoms: _295  and  _297
REMARK  120  A    between atoms: _297  and  _298
REMARK  121  A    between atoms: _297  and  _300
REMARK  122  A    between atoms: _303  and  _305
REMARK  123  A    between atoms: _305  and  _306
REMARK  124  A    between atoms: _308  and  _310
REMARK  125  A    between atoms: _310  and  _311
REMARK  126  A    between atoms: _310  and  _313
REMARK  127  A    between atoms: _313  and  _314
REMARK  128  A    between atoms: _318  and  ZN_601
REMARK  129  A    between atoms: _319  and  _321
REMARK  130  A    between atoms: _321  and  _322
REMARK  131  A    between atoms: _321  and  _324
REMARK  132  A    between atoms: _324  and  _325
REMARK  133  A    between atoms: _325  and  _326
REMARK  134  A    between atoms: _329  and  _331
REMARK  135  A    between atoms: _331  and  _332
REMARK  136  A    between atoms: _331  and  _334
REMARK  137  A    between atoms: _334  and  _335
REMARK  138  A    between atoms: _340  and  _341
REMARK  139  A    between atoms: _343  and  _345
REMARK  140  A    between atoms: _345  and  _346
REMARK  141  A    between atoms: _345  and  _348
REMARK  142  A    between atoms: _348  and  _349
REMARK  143  A    between atoms: _353  and  ZN_601
REMARK  144  A    between atoms: _354  and  _356
REMARK  145  A    between atoms: _356  and  _357
REMARK  146  A    between atoms: _356  and  _359
REMARK  147  A    between atoms: _359  and  _360
REMARK  148  A    between atoms: _365  and  _367
REMARK  149  A    between atoms: _367  and  _368
REMARK  150  A    between atoms: _367  and  _370
REMARK  151  A    between atoms: _370  and  _371
REMARK  152  A    between atoms: _381  and  _383
REMARK  153  A    between atoms: _383  and  _384
REMARK  154  A    between atoms: _383  and  _386
REMARK  155  A    between atoms: _386  and  _387
REMARK  156  A    between atoms: _390  and  _392
REMARK  157  A    between atoms: _392  and  _393
REMARK  158  A    between atoms: _392  and  _395
REMARK  159  A    between atoms: _395  and  _396
REMARK  160  A    between atoms: _396  and  _397
REMARK  161  A    between atoms: _397  and  _398
REMARK  162  A    between atoms: _398  and  _399
REMARK  163  A    between atoms: _403  and  _405
REMARK  164  A    between atoms: _405  and  _406
REMARK  165  A    between atoms: _405  and  _408
REMARK  166  A    between atoms: _408  and  _409
REMARK  167  A    between atoms: _409  and  _410
REMARK  168  A    between atoms: _410  and  _411
REMARK  169  A    between atoms: _411  and  ZN_601
REMARK  170  A    between atoms: _413  and  _415
REMARK  171  A    between atoms: _415  and  _416
REMARK  172  A    between atoms: _418  and  _420
REMARK  173  A    between atoms: _420  and  _421
REMARK  174  A    between atoms: _420  and  _423
REMARK  175  A    between atoms: _423  and  _424
REMARK  176  A    between atoms: _427  and  _429
REMARK  177  A    between atoms: _429  and  _430
REMARK  178  A    between atoms: _429  and  _432
REMARK  179  A    between atoms: _435  and  _437
REMARK  180  A    between atoms: _437  and  _438
REMARK  181  A    between atoms: _437  and  _440
REMARK  182  A    between atoms: _440  and  _441
REMARK  183  A    between atoms: _441  and  _442
REMARK  184  A    between atoms: _445  and  _447
REMARK  185  A    between atoms: _447  and  _448
REMARK  186  A    between atoms: _447  and  _450
REMARK  187  A    between atoms: _450  and  _451
REMARK  188  A    between atoms: _456  and  _458
REMARK  189  A    between atoms: _458  and  _459
REMARK  190  A    between atoms: _458  and  _461
REMARK  191  A    between atoms: _461  and  _462
REMARK  192  A    between atoms: _464  and  _466
REMARK  193  A    between atoms: _466  and  _467
REMARK  194  A    between atoms: _466  and  _469
REMARK  195  A    between atoms: _469  and  _470
REMARK  196  A    between atoms: _470  and  _471
REMARK  197  A    between atoms: _473  and  _475
REMARK  198  A    between atoms: _475  and  _476
REMARK  199  A    between atoms: _475  and  _478
REMARK  200  A    between atoms: _478  and  _479
REMARK  201  A    between atoms: _479  and  _480
REMARK  202  A    between atoms: _483  and  _485
REMARK  203  A    between atoms: _485  and  _486
REMARK  204  A    between atoms: _485  and  _488
REMARK  205  A    between atoms: _488  and  _489
REMARK  206  A    between atoms: _494  and  _496
REMARK  207  A    between atoms: _496  and  _497
REMARK  208  A    between atoms: _496  and  _499
REMARK  209  A    between atoms: _499  and  _500
REMARK  210  A    between atoms: _506  and  _508
REMARK  211  A    between atoms: _508  and  _509
REMARK  212  A    between atoms: _508  and  _511
REMARK  213  A    between atoms: _511  and  _512
REMARK  214  A    between atoms: _517  and  _518
REMARK  215  A    between atoms: _520  and  _522
REMARK  216  A    between atoms: _522  and  _523
REMARK  217  A    between atoms: _522  and  _525
REMARK  218  A    between atoms: _525  and  _526
REMARK  219  A    between atoms: _529  and  _531
REMARK  220  A    between atoms: _531  and  _532
REMARK  221  A    between atoms: _531  and  _534
REMARK  222  A    between atoms: _534  and  _535
REMARK  223  A    between atoms: _540  and  _541
REMARK  224  A    between atoms: _543  and  _545
REMARK  225  A    between atoms: _545  and  _546
REMARK  226  A    between atoms: _545  and  _548
REMARK  227  A    between atoms: _548  and  _549
REMARK  228  A    between atoms: _552  and  _554
REMARK  229  A    between atoms: _554  and  _555
REMARK  230  A    between atoms: _554  and  _557
REMARK  231  A    between atoms: _557  and  _558
REMARK  232  A    between atoms: _558  and  _559
REMARK  233  A    between atoms: _559  and  _560
REMARK  234  A    between atoms: _569  and  _571
REMARK  235  A    between atoms: _571  and  _572
REMARK  236  A    between atoms: _571  and  _574
REMARK  237  A    between atoms: _574  and  _575
REMARK  238  A    between atoms: _575  and  _576
REMARK  239  A    between atoms: _578  and  _580
REMARK  240  A    between atoms: _580  and  _581
REMARK  241  A    between atoms: _580  and  _583
REMARK  242  A    between atoms: _583  and  _584
REMARK  243  A    between atoms: _584  and  _585
REMARK  244  A    between atoms: _590  and  _592
REMARK  245  A    between atoms: _592  and  _593
REMARK  246  A    between atoms: _592  and  _595
REMARK  247  A    between atoms: _595  and  _596
REMARK                            x       y       z     vdW  Elec       q    Type
REMARK                         _______ _______ _______ _____ _____    ______ ____
ROOT
ATOM      1  CA  MET A   1      16.297   8.097  24.603  0.00  0.00    +0.134 C 
ENDROOT
BRANCH   1   2
ATOM      2  N   MET A   1      16.331   8.532  25.997  0.00  0.00    -0.239 NA
ATOM      3  H   MET A   1      16.281   9.550  26.203  0.00  0.00    +0.142 HD
ENDBRANCH   1   2
BRANCH   1   4
ATOM      4  C   MET A   1      17.563   7.327  24.198  0.00  0.00    +0.224 C 
ATOM      5  O   MET A   1      17.472   6.238  23.626  0.00  0.00    -0.287 OA
ENDBRANCH   1   4
BRANCH   1   6
ATOM      6  CB  MET A   1      16.046   9.296  23.684  0.00  0.00    +0.037 C 
BRANCH   6   7
ATOM      7  CG  MET A   1      16.379   9.073  22.224  0.00  0.00    +0.059 C 
BRANCH   7   8
ATOM      8  SD  MET A   1      15.244   9.936  21.126  0.00  0.00    -0.139 S 
ATOM      9  CE  MET A   1      14.101   8.610  20.765  0.00  0.00    +0.069 C 
ENDBRANCH   7   8
ENDBRANCH   6   7
ENDBRANCH   1   6
TORSDOF 5
REMARK  Name = ../refined-set-2016/3ebi/3ebi_pocket.pdb
REMARK  247 active torsions:
REMARK  status: ('A' for Active; 'I' for Inactive)
REMARK    1  A    between atoms: _1  and  _3
REMARK    2  A    between atoms: _3  and  _4
REMARK    3  A    between atoms: _7  and  _9
REMARK    4  A    between atoms: _9  and  _10
REMARK    5  A    between atoms: _9  and  _12
REMARK    6  A    between atoms: _12  and  _13
REMARK    7  A    between atoms: _16  and  _18
REMARK    8  A    between atoms: _18  and  _19
REMARK    9  A    between atoms: _18  and  _21
REMARK   10  A    between atoms: _21  and  _22
REMARK   11  A    between atoms: _25  and  _27
REMARK   12  A    between atoms: _27  and  _28
REMARK   13  A    between atoms: _30  and  _32
REMARK   14  A    between atoms: _32  and  _33
REMARK   15  A    between atoms: _32  and  _35
REMARK   16  A    between atoms: _35  and  _36
REMARK   17  A    between atoms: _36  and  _37
REMARK   18  A    between atoms: _42  and  _44
REMARK   19  A    between atoms: _44  and  _45
REMARK   20  A    between atoms: _44  and  _47
REMARK   21  A    between atoms: _49  and  _51
REMARK   22  A    between atoms: _51  and  _52
REMARK   23  A    between atoms: _51  and  _54
REMARK   24  A    between atoms: _54  and  _55
REMARK   25  A    between atoms: _55  and  _56
REMARK   26  A    between atoms: _59  and  _61
REMARK   27  A    between atoms: _61  and  _62
REMARK   28  A    between atoms: _65  and  _67
REMARK   29  A    between atoms: _67  and  _68
REMARK   30  A    between atoms: _67  and  _70
REMARK   31  A    between atoms: _70  and  _71
REMARK   32  A    between atoms: _74  and  _76
REMARK   33  A    between atoms: _76  and  _77
REMARK   34  A    between atoms: _79  and  _81
REMARK   35  A    between atoms: _81  and  _82
REMARK   36  A    between atoms: _81  and  _84
REMARK   37  A    between atoms: _84  and  _85
REMARK   38  A    between atoms: _90  and  _91
REMARK   39  A    between atoms: _93  and  _95
REMARK   40  A    between atoms: _95  and  _96
REMARK   41  A    between atoms: _95  and  _98
REMARK   42  A    between atoms: _98  and  _99
REMARK   43  A    between atoms: _102  and  _104
REMARK   44  A    between atoms: _104  and  _105
REMARK   45  A    between atoms: _104  and  _107
REMARK   46  A    between atoms: _107  and  _108
REMARK   47  A    between atoms: _114  and  _116
REMARK   48  A    between atoms: _116  and  _117
REMARK   49  A    between atoms: _116  and  _119
REMARK   50  A    between atoms: _119  and  _120
REMARK   51  A    between atoms: _125  and  _127
REMARK   52  A    between atoms: _127  and  _128
REMARK   53  A    between atoms: _127  and  _130
REMARK   54  A    between atoms: _133  and  _135
REMARK   55  A    between atoms: _135  and  _136
REMARK   56  A    between atoms: _138  and  _140
REMARK   57  A    between atoms: _140  and  _141
REMARK   58  A    between atoms: _144  and  _146
REMARK   59  A    between atoms: _146  and  _147
REMARK   60  A    between atoms: _146  and  _149
REMARK   61  A    between atoms: _149  and  _150
REMARK   62  A    between atoms: _150  and  _151
REMARK   63  A    between atoms: _153  and  _155
REMARK   64  A    between atoms: _155  and  _156
REMARK   65  A    between atoms: _155  and  _158
REMARK   66  A    between atoms: _158  and  _159
REMARK   67  A    between atoms: _159  and  _160
REMARK   68  A    between atoms: _163  and  _165
REMARK   69  A    between atoms: _165  and  _166
REMARK   70  A    between atoms: _165  and  _168
REMARK   71  A    between atoms: _168  and  _169
REMARK   72  A    between atoms: _174  and  _176
REMARK   73  A    between atoms: _176  and  _177
REMARK   74  A    between atoms: _176  and  _179
REMARK   75  A    between atoms: _179  and  _180
REMARK   76  A    between atoms: _183  and  _185
REMARK   77  A    between atoms: _185  and  _186
REMARK   78  A    between atoms: _185  and  _188
REMARK   79  A    between atoms: _188  and  _189
REMARK   80  A    between atoms: _195  and  _197
REMARK   81  A    between atoms: _197  and  _198
REMARK   82  A    between atoms: _197  and  _200
REMARK   83  A    between atoms: _200  and  _201
REMARK   84  A    between atoms: _206  and  _208
REMARK   85  A    between atoms: _208  and  _209
REMARK   86  A    between atoms: _208  and  _211
REMARK   87  A    between atoms: _211  and  _212
REMARK   88  A    between atoms: _217  and  _219
REMARK   89  A    between atoms: _219  and  _220
REMARK   90  A    between atoms: _219  and  _222
REMARK   91  A    between atoms: _222  and  _223
REMARK   92  A    between atoms: _225  and  _227
REMARK   93  A    between atoms: _227  and  _228
REMARK   94  A    between atoms: _227  and  _230
REMARK   95  A    between atoms: _230  and  _231
REMARK   96  A    between atoms: _237  and  _239
REMARK   97  A    between atoms: _239  and  _240
REMARK   98  A    between atoms: _243  and  _245
REMARK   99  A    between atoms: _245  and  _246
REMARK  100  A    between atoms: _245  and  _248
REMARK  101  A    between atoms: _248  and  _249
REMARK  102  A    between atoms: _249  and  _250
REMARK  103  A    between atoms: _250  and  _251
REMARK  104  A    between atoms: _260  and  _262
REMARK  105  A    between atoms: _262  and  _263
REMARK  106  A    between atoms: _262  and  _265
REMARK  107  A    between atoms: _265  and  _266
REMARK  108  A    between atoms: _269  and  _271
REMARK  109  A    between atoms: _271  and  _272
REMARK  110  A    between atoms: _271  and  _274
REMARK  111  A    between atoms: _274  and  _275
REMARK  112  A    between atoms: _278  and  _280
REMARK  113  A    between atoms: _280  and  _281
REMARK  114  A    between atoms: _280  and  _283
REMARK  115  A    between atoms: _283  and  _284
REMARK  116  A    between atoms: _287  and  _289
REMARK  117  A    between atoms: _289  and  _290
REMARK  118  A    between atoms: _289  and  _292
REMARK  119  A    between atoms: _295  and  _297
REMARK  120  A    between atoms: _297  and  _298
REMARK  121  A    between atoms: _297  and  _300
REMARK  122  A    between atoms: _303  and  _305
REMARK  123  A    between atoms: _305  and  _306
REMARK  124  A    between atoms: _308  and  _310
REMARK  125  A    between atoms: _310  and  _311
REMARK  126  A    between atoms: _310  and  _313
REMARK  127  A    between atoms: _313  and  _314
REMARK  128  A    between atoms: _318  and  ZN_601
REMARK  129  A    between atoms: _319  and  _321
REMARK  130  A    between atoms: _321  and  _322
REMARK  131  A    between atoms: _321  and  _324
REMARK  132  A    between atoms: _324  and  _325
REMARK  133  A    between atoms: _325  and  _326
REMARK  134  A    between atoms: _329  and  _331
REMARK  135  A    between atoms: _331  and  _332
REMARK  136  A    between atoms: _331  and  _334
REMARK  137  A    between atoms: _334  and  _335
REMARK  138  A    between atoms: _340  and  _341
REMARK  139  A    between atoms: _343  and  _345
REMARK  140  A    between atoms: _345  and  _346
REMARK  141  A    between atoms: _345  and  _348
REMARK  142  A    between atoms: _348  and  _349
REMARK  143  A    between atoms: _353  and  ZN_601
REMARK  144  A    between atoms: _354  and  _356
REMARK  145  A    between atoms: _356  and  _357
REMARK  146  A    between atoms: _356  and  _359
REMARK  147  A    between atoms: _359  and  _360
REMARK  148  A    between atoms: _365  and  _367
REMARK  149  A    between atoms: _367  and  _368
REMARK  150  A    between atoms: _367  and  _370
REMARK  151  A    between atoms: _370  and  _371
REMARK  152  A    between atoms: _381  and  _383
REMARK  153  A    between atoms: _383  and  _384
REMARK  154  A    between atoms: _383  and  _386
REMARK  155  A    between atoms: _386  and  _387
REMARK  156  A    between atoms: _390  and  _392
REMARK  157  A    between atoms: _392  and  _393
REMARK  158  A    between atoms: _392  and  _395
REMARK  159  A    between atoms: _395  and  _396
REMARK  160  A    between atoms: _396  and  _397
REMARK  161  A    between atoms: _397  and  _398
REMARK  162  A    between atoms: _398  and  _399
REMARK  163  A    between atoms: _403  and  _405
REMARK  164  A    between atoms: _405  and  _406
REMARK  165  A    between atoms: _405  and  _408
REMARK  166  A    between atoms: _408  and  _409
REMARK  167  A    between atoms: _409  and  _410
REMARK  168  A    between atoms: _410  and  _411
REMARK  169  A    between atoms: _411  and  ZN_601
REMARK  170  A    between atoms: _413  and  _415
REMARK  171  A    between atoms: _415  and  _416
REMARK  172  A    between atoms: _418  and  _420
REMARK  173  A    between atoms: _420  and  _421
REMARK  174  A    between atoms: _420  and  _423
REMARK  175  A    between atoms: _423  and  _424
REMARK  176  A    between atoms: _427  and  _429
REMARK  177  A    between atoms: _429  and  _430
REMARK  178  A    between atoms: _429  and  _432
REMARK  179  A    between atoms: _435  and  _437
REMARK  180  A    between atoms: _437  and  _438
REMARK  181  A    between atoms: _437  and  _440
REMARK  182  A    between atoms: _440  and  _441
REMARK  183  A    between atoms: _441  and  _442
REMARK  184  A    between atoms: _445  and  _447
REMARK  185  A    between atoms: _447  and  _448
REMARK  186  A    between atoms: _447  and  _450
REMARK  187  A    between atoms: _450  and  _451
REMARK  188  A    between atoms: _456  and  _458
REMARK  189  A    between atoms: _458  and  _459
REMARK  190  A    between atoms: _458  and  _461
REMARK  191  A    between atoms: _461  and  _462
REMARK  192  A    between atoms: _464  and  _466
REMARK  193  A    between atoms: _466  and  _467
REMARK  194  A    between atoms: _466  and  _469
REMARK  195  A    between atoms: _469  and  _470
REMARK  196  A    between atoms: _470  and  _471
REMARK  197  A    between atoms: _473  and  _475
REMARK  198  A    between atoms: _475  and  _476
REMARK  199  A    between atoms: _475  and  _478
REMARK  200  A    between atoms: _478  and  _479
REMARK  201  A    between atoms: _479  and  _480
REMARK  202  A    between atoms: _483  and  _485
REMARK  203  A    between atoms: _485  and  _486
REMARK  204  A    between atoms: _485  and  _488
REMARK  205  A    between atoms: _488  and  _489
REMARK  206  A    between atoms: _494  and  _496
REMARK  207  A    between atoms: _496  and  _497
REMARK  208  A    between atoms: _496  and  _499
REMARK  209  A    between atoms: _499  and  _500
REMARK  210  A    between atoms: _506  and  _508
REMARK  211  A    between atoms: _508  and  _509
REMARK  212  A    between atoms: _508  and  _511
REMARK  213  A    between atoms: _511  and  _512
REMARK  214  A    between atoms: _517  and  _518
REMARK  215  A    between atoms: _520  and  _522
REMARK  216  A    between atoms: _522  and  _523
REMARK  217  A    between atoms: _522  and  _525
REMARK  218  A    between atoms: _525  and  _526
REMARK  219  A    between atoms: _529  and  _531
REMARK  220  A    between atoms: _531  and  _532
REMARK  221  A    between atoms: _531  and  _534
REMARK  222  A    between atoms: _534  and  _535
REMARK  223  A    between atoms: _540  and  _541
REMARK  224  A    between atoms: _543  and  _545
REMARK  225  A    between atoms: _545  and  _546
REMARK  226  A    between atoms: _545  and  _548
REMARK  227  A    between atoms: _548  and  _549
REMARK  228  A    between atoms: _552  and  _554
REMARK  229  A    between atoms: _554  and  _555
REMARK  230  A    between atoms: _554  and  _557
REMARK  231  A    between atoms: _557  and  _558
REMARK  232  A    between atoms: _558  and  _559
REMARK  233  A    between atoms: _559  and  _560
REMARK  234  A    between atoms: _569  and  _571
REMARK  235  A    between atoms: _571  and  _572
REMARK  236  A    between atoms: _571  and  _574
REMARK  237  A    between atoms: _574  and  _575
REMARK  238  A    between atoms: _575  and  _576
REMARK  239  A    between atoms: _578  and  _580
REMARK  240  A    between atoms: _580  and  _581
REMARK  241  A    between atoms: _580  and  _583
REMARK  242  A    between atoms: _583  and  _584
REMARK  243  A    between atoms: _584  and  _585
REMARK  244  A    between atoms: _590  and  _592
REMARK  245  A    between atoms: _592  and  _593
REMARK  246  A    between atoms: _592  and  _595
REMARK  247  A    between atoms: _595  and  _596
REMARK                            x       y       z     vdW  Elec       q    Type
REMARK                         _______ _______ _______ _____ _____    ______ ____
ROOT
ATOM      1  CB  GLN A   1      20.000   4.267  21.418  0.00  0.00    +0.035 C 
ENDROOT
BRANCH   1   2
ATOM      2  CA  GLN A   1      19.416   3.044  22.133  0.00  0.00    +0.134 C 
BRANCH   2   3
ATOM      3  N   GLN A   1      18.602   3.436  23.278  0.00  0.00    -0.239 NA
ATOM      4  H   GLN A   1      18.602   4.433  23.575  0.00  0.00    +0.142 HD
ENDBRANCH   2   3
BRANCH   2   5
ATOM      5  C   GLN A   1      20.560   2.118  22.544  0.00  0.00    +0.224 C 
ATOM      6  O   GLN A   1      20.943   1.219  21.789  0.00  0.00    -0.287 OA
ENDBRANCH   2   5
ENDBRANCH   1   2
BRANCH   1   7
ATOM      7  CG  GLN A   1      18.971   5.187  20.780  0.00  0.00    +0.087 C 
BRANCH   7   8
ATOM      8  CD  GLN A   1      19.576   6.497  20.339  0.00  0.00    +0.219 C 
ATOM      9  OE1 GLN A   1      20.726   6.797  20.663  0.00  0.00    -0.275 OA
ATOM     10  NE2 GLN A   1      18.800   7.294  19.607  0.00  0.00    -0.329 N 
ATOM     11 HE21 GLN A   1      17.835   6.996  19.359  0.00  0.00    +0.145 HD
ATOM     12 HE22 GLN A   1      19.159   8.215  19.283  0.00  0.00    +0.145 HD
ENDBRANCH   7   8
ENDBRANCH   1   7
TORSDOF 5
REMARK  Name = ../refined-set-2016/3ebi/3ebi_pocket.pdb
REMARK  247 active torsions:
REMARK  status: ('A' for Active; 'I' for Inactive)
REMARK    1  A    between atoms: _1  and  _3
REMARK    2  A    between atoms: _3  and  _4
REMARK    3  A    between atoms: _7  and  _9
REMARK    4  A    between atoms: _9  and  _10
REMARK    5  A    between atoms: _9  and  _12
REMARK    6  A    between atoms: _12  and  _13
REMARK    7  A    between atoms: _16  and  _18
REMARK    8  A    between atoms: _18  and  _19
REMARK    9  A    between atoms: _18  and  _21
REMARK   10  A    between atoms: _21  and  _22
REMARK   11  A    between atoms: _25  and  _27
REMARK   12  A    between atoms: _27  and  _28
REMARK   13  A    between atoms: _30  and  _32
REMARK   14  A    between atoms: _32  and  _33
REMARK   15  A    between atoms: _32  and  _35
REMARK   16  A    between atoms: _35  and  _36
REMARK   17  A    between atoms: _36  and  _37
REMARK   18  A    between atoms: _42  and  _44
REMARK   19  A    between atoms: _44  and  _45
REMARK   20  A    between atoms: _44  and  _47
REMARK   21  A    between atoms: _49  and  _51
REMARK   22  A    between atoms: _51  and  _52
REMARK   23  A    between atoms: _51  and  _54
REMARK   24  A    between atoms: _54  and  _55
REMARK   25  A    between atoms: _55  and  _56
REMARK   26  A    between atoms: _59  and  _61
REMARK   27  A    between atoms: _61  and  _62
REMARK   28  A    between atoms: _65  and  _67
REMARK   29  A    between atoms: _67  and  _68
REMARK   30  A    between atoms: _67  and  _70
REMARK   31  A    between atoms: _70  and  _71
REMARK   32  A    between atoms: _74  and  _76
REMARK   33  A    between atoms: _76  and  _77
REMARK   34  A    between atoms: _79  and  _81
REMARK   35  A    between atoms: _81  and  _82
REMARK   36  A    between atoms: _81  and  _84
REMARK   37  A    between atoms: _84  and  _85
REMARK   38  A    between atoms: _90  and  _91
REMARK   39  A    between atoms: _93  and  _95
REMARK   40  A    between atoms: _95  and  _96
REMARK   41  A    between atoms: _95  and  _98
REMARK   42  A    between atoms: _98  and  _99
REMARK   43  A    between atoms: _102  and  _104
REMARK   44  A    between atoms: _104  and  _105
REMARK   45  A    between atoms: _104  and  _107
REMARK   46  A    between atoms: _107  and  _108
REMARK   47  A    between atoms: _114  and  _116
REMARK   48  A    between atoms: _116  and  _117
REMARK   49  A    between atoms: _116  and  _119
REMARK   50  A    between atoms: _119  and  _120
REMARK   51  A    between atoms: _125  and  _127
REMARK   52  A    between atoms: _127  and  _128
REMARK   53  A    between atoms: _127  and  _130
REMARK   54  A    between atoms: _133  and  _135
REMARK   55  A    between atoms: _135  and  _136
REMARK   56  A    between atoms: _138  and  _140
REMARK   57  A    between atoms: _140  and  _141
REMARK   58  A    between atoms: _144  and  _146
REMARK   59  A    between atoms: _146  and  _147
REMARK   60  A    between atoms: _146  and  _149
REMARK   61  A    between atoms: _149  and  _150
REMARK   62  A    between atoms: _150  and  _151
REMARK   63  A    between atoms: _153  and  _155
REMARK   64  A    between atoms: _155  and  _156
REMARK   65  A    between atoms: _155  and  _158
REMARK   66  A    between atoms: _158  and  _159
REMARK   67  A    between atoms: _159  and  _160
REMARK   68  A    between atoms: _163  and  _165
REMARK   69  A    between atoms: _165  and  _166
REMARK   70  A    between atoms: _165  and  _168
REMARK   71  A    between atoms: _168  and  _169
REMARK   72  A    between atoms: _174  and  _176
REMARK   73  A    between atoms: _176  and  _177
REMARK   74  A    between atoms: _176  and  _179
REMARK   75  A    between atoms: _179  and  _180
REMARK   76  A    between atoms: _183  and  _185
REMARK   77  A    between atoms: _185  and  _186
REMARK   78  A    between atoms: _185  and  _188
REMARK   79  A    between atoms: _188  and  _189
REMARK   80  A    between atoms: _195  and  _197
REMARK   81  A    between atoms: _197  and  _198
REMARK   82  A    between atoms: _197  and  _200
REMARK   83  A    between atoms: _200  and  _201
REMARK   84  A    between atoms: _206  and  _208
REMARK   85  A    between atoms: _208  and  _209
REMARK   86  A    between atoms: _208  and  _211
REMARK   87  A    between atoms: _211  and  _212
REMARK   88  A    between atoms: _217  and  _219
REMARK   89  A    between atoms: _219  and  _220
REMARK   90  A    between atoms: _219  and  _222
REMARK   91  A    between atoms: _222  and  _223
REMARK   92  A    between atoms: _225  and  _227
REMARK   93  A    between atoms: _227  and  _228
REMARK   94  A    between atoms: _227  and  _230
REMARK   95  A    between atoms: _230  and  _231
REMARK   96  A    between atoms: _237  and  _239
REMARK   97  A    between atoms: _239  and  _240
REMARK   98  A    between atoms: _243  and  _245
REMARK   99  A    between atoms: _245  and  _246
REMARK  100  A    between atoms: _245  and  _248
REMARK  101  A    between atoms: _248  and  _249
REMARK  102  A    between atoms: _249  and  _250
REMARK  103  A    between atoms: _250  and  _251
REMARK  104  A    between atoms: _260  and  _262
REMARK  105  A    between atoms: _262  and  _263
REMARK  106  A    between atoms: _262  and  _265
REMARK  107  A    between atoms: _265  and  _266
REMARK  108  A    between atoms: _269  and  _271
REMARK  109  A    between atoms: _271  and  _272
REMARK  110  A    between atoms: _271  and  _274
REMARK  111  A    between atoms: _274  and  _275
REMARK  112  A    between atoms: _278  and  _280
REMARK  113  A    between atoms: _280  and  _281
REMARK  114  A    between atoms: _280  and  _283
REMARK  115  A    between atoms: _283  and  _284
REMARK  116  A    between atoms: _287  and  _289
REMARK  117  A    between atoms: _289  and  _290
REMARK  118  A    between atoms: _289  and  _292
REMARK  119  A    between atoms: _295  and  _297
REMARK  120  A    between atoms: _297  and  _298
REMARK  121  A    between atoms: _297  and  _300
REMARK  122  A    between atoms: _303  and  _305
REMARK  123  A    between atoms: _305  and  _306
REMARK  124  A    between atoms: _308  and  _310
REMARK  125  A    between atoms: _310  and  _311
REMARK  126  A    between atoms: _310  and  _313
REMARK  127  A    between atoms: _313  and  _314
REMARK  128  A    between atoms: _318  and  ZN_601
REMARK  129  A    between atoms: _319  and  _321
REMARK  130  A    between atoms: _321  and  _322
REMARK  131  A    between atoms: _321  and  _324
REMARK  132  A    between atoms: _324  and  _325
REMARK  133  A    between atoms: _325  and  _326
REMARK  134  A    between atoms: _329  and  _331
REMARK  135  A    between atoms: _331  and  _332
REMARK  136  A    between atoms: _331  and  _334
REMARK  137  A    between atoms: _334  and  _335
REMARK  138  A    between atoms: _340  and  _341
REMARK  139  A    between atoms: _343  and  _345
REMARK  140  A    between atoms: _345  and  _346
REMARK  141  A    between atoms: _345  and  _348
REMARK  142  A    between atoms: _348  and  _349
REMARK  143  A    between atoms: _353  and  ZN_601
REMARK  144  A    between atoms: _354  and  _356
REMARK  145  A    between atoms: _356  and  _357
REMARK  146  A    between atoms: _356  and  _359
REMARK  147  A    between atoms: _359  and  _360
REMARK  148  A    between atoms: _365  and  _367
REMARK  149  A    between atoms: _367  and  _368
REMARK  150  A    between atoms: _367  and  _370
REMARK  151  A    between atoms: _370  and  _371
REMARK  152  A    between atoms: _381  and  _383
REMARK  153  A    between atoms: _383  and  _384
REMARK  154  A    between atoms: _383  and  _386
REMARK  155  A    between atoms: _386  and  _387
REMARK  156  A    between atoms: _390  and  _392
REMARK  157  A    between atoms: _392  and  _393
REMARK  158  A    between atoms: _392  and  _395
REMARK  159  A    between atoms: _395  and  _396
REMARK  160  A    between atoms: _396  and  _397
REMARK  161  A    between atoms: _397  and  _398
REMARK  162  A    between atoms: _398  and  _399
REMARK  163  A    between atoms: _403  and  _405
REMARK  164  A    between atoms: _405  and  _406
REMARK  165  A    between atoms: _405  and  _408
REMARK  166  A    between atoms: _408  and  _409
REMARK  167  A    between atoms: _409  and  _410
REMARK  168  A    between atoms: _410  and  _411
REMARK  169  A    between atoms: _411  and  ZN_601
REMARK  170  A    between atoms: _413  and  _415
REMARK  171  A    between atoms: _415  and  _416
REMARK  172  A    between atoms: _418  and  _420
REMARK  173  A    between atoms: _420  and  _421
REMARK  174  A    between atoms: _420  and  _423
REMARK  175  A    between atoms: _423  and  _424
REMARK  176  A    between atoms: _427  and  _429
REMARK  177  A    between atoms: _429  and  _430
REMARK  178  A    between atoms: _429  and  _432
REMARK  179  A    between atoms: _435  and  _437
REMARK  180  A    between atoms: _437  and  _438
REMARK  181  A    between atoms: _437  and  _440
REMARK  182  A    between atoms: _440  and  _441
REMARK  183  A    between atoms: _441  and  _442
REMARK  184  A    between atoms: _445  and  _447
REMARK  185  A    between atoms: _447  and  _448
REMARK  186  A    between atoms: _447  and  _450
REMARK  187  A    between atoms: _450  and  _451
REMARK  188  A    between atoms: _456  and  _458
REMARK  189  A    between atoms: _458  and  _459
REMARK  190  A    between atoms: _458  and  _461
REMARK  191  A    between atoms: _461  and  _462
REMARK  192  A    between atoms: _464  and  _466
REMARK  193  A    between atoms: _466  and  _467
REMARK  194  A    between atoms: _466  and  _469
REMARK  195  A    between atoms: _469  and  _470
REMARK  196  A    between atoms: _470  and  _471
REMARK  197  A    between atoms: _473  and  _475
REMARK  198  A    between atoms: _475  and  _476
REMARK  199  A    between atoms: _475  and  _478
REMARK  200  A    between atoms: _478  and  _479
REMARK  201  A    between atoms: _479  and  _480
REMARK  202  A    between atoms: _483  and  _485
REMARK  203  A    between atoms: _485  and  _486
REMARK  204  A    between atoms: _485  and  _488
REMARK  205  A    between atoms: _488  and  _489
REMARK  206  A    between atoms: _494  and  _496
REMARK  207  A    between atoms: _496  and  _497
REMARK  208  A    between atoms: _496  and  _499
REMARK  209  A    between atoms: _499  and  _500
REMARK  210  A    between atoms: _506  and  _508
REMARK  211  A    between atoms: _508  and  _509
REMARK  212  A    between atoms: _508  and  _511
REMARK  213  A    between atoms: _511  and  _512
REMARK  214  A    between atoms: _517  and  _518
REMARK  215  A    between atoms: _520  and  _522
REMARK  216  A    between atoms: _522  and  _523
REMARK  217  A    between atoms: _522  and  _525
REMARK  218  A    between atoms: _525  and  _526
REMARK  219  A    between atoms: _529  and  _531
REMARK  220  A    between atoms: _531  and  _532
REMARK  221  A    between atoms: _531  and  _534
REMARK  222  A    between atoms: _534  and  _535
REMARK  223  A    between atoms: _540  and  _541
REMARK  224  A    between atoms: _543  and  _545
REMARK  225  A    between atoms: _545  and  _546
REMARK  226  A    between atoms: _545  and  _548
REMARK  227  A    between atoms: _548  and  _549
REMARK  228  A    between atoms: _552  and  _554
REMARK  229  A    between atoms: _554  and  _555
REMARK  230  A    between atoms: _554  and  _557
REMARK  231  A    between atoms: _557  and  _558
REMARK  232  A    between atoms: _558  and  _559
REMARK  233  A    between atoms: _559  and  _560
REMARK  234  A    between atoms: _569  and  _571
REMARK  235  A    between atoms: _571  and  _572
REMARK  236  A    between atoms: _571  and  _574
REMARK  237  A    between atoms: _574  and  _575
REMARK  238  A    between atoms: _575  and  _576
REMARK  239  A    between atoms: _578  and  _580
REMARK  240  A    between atoms: _580  and  _581
REMARK  241  A    between atoms: _580  and  _583
REMARK  242  A    between atoms: _583  and  _584
REMARK  243  A    between atoms: _584  and  _585
REMARK  244  A    between atoms: _590  and  _592
REMARK  245  A    between atoms: _592  and  _593
REMARK  246  A    between atoms: _592  and  _595
REMARK  247  A    between atoms: _595  and  _596
REMARK                            x       y       z     vdW  Elec       q    Type
REMARK                         _______ _______ _______ _____ _____    ______ ____
ROOT
ATOM      1  CB  ASN A   1      12.380   6.223  27.657  0.00  0.00    +0.110 C 
ENDROOT
BRANCH   1   2
ATOM      2  CG  ASN A   1      11.791   7.580  27.323  0.00  0.00    +0.221 C 
ATOM      3  OD1 ASN A   1      11.247   8.259  28.325  0.00  0.00    -0.275 OA
ATOM      4  ND2 ASN A   1      11.840   8.017  26.175  0.00  0.00    -0.329 N 
ATOM      5 HD21 ASN A   1      11.445   8.954  25.958  0.00  0.00    +0.145 HD
ATOM      6 HD22 ASN A   1      12.276   7.449  25.421  0.00  0.00    +0.145 HD
ENDBRANCH   1   2
BRANCH   1   7
ATOM      7  CA  ASN A   1      11.375   5.280  28.334  0.00  0.00    +0.142 C 
BRANCH   7   8
ATOM      8  N   ASN A   1      10.866   5.834  29.593  0.00  0.00    -0.239 NA
ATOM      9  H   ASN A   1      11.188   6.777  29.889  0.00  0.00    +0.142 HD
ENDBRANCH   7   8
BRANCH   7  10
ATOM     10  C   ASN A   1      12.052   3.942  28.558  0.00  0.00    +0.225 C 
ATOM     11  O   ASN A   1      11.683   2.950  27.937  0.00  0.00    -0.287 OA
ENDBRANCH   7  10
ENDBRANCH   1   7
TORSDOF 4
REMARK  Name = ../refined-set-2016/3ebi/3ebi_pocket.pdb
REMARK  247 active torsions:
REMARK  status: ('A' for Active; 'I' for Inactive)
REMARK    1  A    between atoms: _1  and  _3
REMARK    2  A    between atoms: _3  and  _4
REMARK    3  A    between atoms: _7  and  _9
REMARK    4  A    between atoms: _9  and  _10
REMARK    5  A    between atoms: _9  and  _12
REMARK    6  A    between atoms: _12  and  _13
REMARK    7  A    between atoms: _16  and  _18
REMARK    8  A    between atoms: _18  and  _19
REMARK    9  A    between atoms: _18  and  _21
REMARK   10  A    between atoms: _21  and  _22
REMARK   11  A    between atoms: _25  and  _27
REMARK   12  A    between atoms: _27  and  _28
REMARK   13  A    between atoms: _30  and  _32
REMARK   14  A    between atoms: _32  and  _33
REMARK   15  A    between atoms: _32  and  _35
REMARK   16  A    between atoms: _35  and  _36
REMARK   17  A    between atoms: _36  and  _37
REMARK   18  A    between atoms: _42  and  _44
REMARK   19  A    between atoms: _44  and  _45
REMARK   20  A    between atoms: _44  and  _47
REMARK   21  A    between atoms: _49  and  _51
REMARK   22  A    between atoms: _51  and  _52
REMARK   23  A    between atoms: _51  and  _54
REMARK   24  A    between atoms: _54  and  _55
REMARK   25  A    between atoms: _55  and  _56
REMARK   26  A    between atoms: _59  and  _61
REMARK   27  A    between atoms: _61  and  _62
REMARK   28  A    between atoms: _65  and  _67
REMARK   29  A    between atoms: _67  and  _68
REMARK   30  A    between atoms: _67  and  _70
REMARK   31  A    between atoms: _70  and  _71
REMARK   32  A    between atoms: _74  and  _76
REMARK   33  A    between atoms: _76  and  _77
REMARK   34  A    between atoms: _79  and  _81
REMARK   35  A    between atoms: _81  and  _82
REMARK   36  A    between atoms: _81  and  _84
REMARK   37  A    between atoms: _84  and  _85
REMARK   38  A    between atoms: _90  and  _91
REMARK   39  A    between atoms: _93  and  _95
REMARK   40  A    between atoms: _95  and  _96
REMARK   41  A    between atoms: _95  and  _98
REMARK   42  A    between atoms: _98  and  _99
REMARK   43  A    between atoms: _102  and  _104
REMARK   44  A    between atoms: _104  and  _105
REMARK   45  A    between atoms: _104  and  _107
REMARK   46  A    between atoms: _107  and  _108
REMARK   47  A    between atoms: _114  and  _116
REMARK   48  A    between atoms: _116  and  _117
REMARK   49  A    between atoms: _116  and  _119
REMARK   50  A    between atoms: _119  and  _120
REMARK   51  A    between atoms: _125  and  _127
REMARK   52  A    between atoms: _127  and  _128
REMARK   53  A    between atoms: _127  and  _130
REMARK   54  A    between atoms: _133  and  _135
REMARK   55  A    between atoms: _135  and  _136
REMARK   56  A    between atoms: _138  and  _140
REMARK   57  A    between atoms: _140  and  _141
REMARK   58  A    between atoms: _144  and  _146
REMARK   59  A    between atoms: _146  and  _147
REMARK   60  A    between atoms: _146  and  _149
REMARK   61  A    between atoms: _149  and  _150
REMARK   62  A    between atoms: _150  and  _151
REMARK   63  A    between atoms: _153  and  _155
REMARK   64  A    between atoms: _155  and  _156
REMARK   65  A    between atoms: _155  and  _158
REMARK   66  A    between atoms: _158  and  _159
REMARK   67  A    between atoms: _159  and  _160
REMARK   68  A    between atoms: _163  and  _165
REMARK   69  A    between atoms: _165  and  _166
REMARK   70  A    between atoms: _165  and  _168
REMARK   71  A    between atoms: _168  and  _169
REMARK   72  A    between atoms: _174  and  _176
REMARK   73  A    between atoms: _176  and  _177
REMARK   74  A    between atoms: _176  and  _179
REMARK   75  A    between atoms: _179  and  _180
REMARK   76  A    between atoms: _183  and  _185
REMARK   77  A    between atoms: _185  and  _186
REMARK   78  A    between atoms: _185  and  _188
REMARK   79  A    between atoms: _188  and  _189
REMARK   80  A    between atoms: _195  and  _197
REMARK   81  A    between atoms: _197  and  _198
REMARK   82  A    between atoms: _197  and  _200
REMARK   83  A    between atoms: _200  and  _201
REMARK   84  A    between atoms: _206  and  _208
REMARK   85  A    between atoms: _208  and  _209
REMARK   86  A    between atoms: _208  and  _211
REMARK   87  A    between atoms: _211  and  _212
REMARK   88  A    between atoms: _217  and  _219
REMARK   89  A    between atoms: _219  and  _220
REMARK   90  A    between atoms: _219  and  _222
REMARK   91  A    between atoms: _222  and  _223
REMARK   92  A    between atoms: _225  and  _227
REMARK   93  A    between atoms: _227  and  _228
REMARK   94  A    between atoms: _227  and  _230
REMARK   95  A    between atoms: _230  and  _231
REMARK   96  A    between atoms: _237  and  _239
REMARK   97  A    between atoms: _239  and  _240
REMARK   98  A    between atoms: _243  and  _245
REMARK   99  A    between atoms: _245  and  _246
REMARK  100  A    between atoms: _245  and  _248
REMARK  101  A    between atoms: _248  and  _249
REMARK  102  A    between atoms: _249  and  _250
REMARK  103  A    between atoms: _250  and  _251
REMARK  104  A    between atoms: _260  and  _262
REMARK  105  A    between atoms: _262  and  _263
REMARK  106  A    between atoms: _262  and  _265
REMARK  107  A    between atoms: _265  and  _266
REMARK  108  A    between atoms: _269  and  _271
REMARK  109  A    between atoms: _271  and  _272
REMARK  110  A    between atoms: _271  and  _274
REMARK  111  A    between atoms: _274  and  _275
REMARK  112  A    between atoms: _278  and  _280
REMARK  113  A    between atoms: _280  and  _281
REMARK  114  A    between atoms: _280  and  _283
REMARK  115  A    between atoms: _283  and  _284
REMARK  116  A    between atoms: _287  and  _289
REMARK  117  A    between atoms: _289  and  _290
REMARK  118  A    between atoms: _289  and  _292
REMARK  119  A    between atoms: _295  and  _297
REMARK  120  A    between atoms: _297  and  _298
REMARK  121  A    between atoms: _297  and  _300
REMARK  122  A    between atoms: _303  and  _305
REMARK  123  A    between atoms: _305  and  _306
REMARK  124  A    between atoms: _308  and  _310
REMARK  125  A    between atoms: _310  and  _311
REMARK  126  A    between atoms: _310  and  _313
REMARK  127  A    between atoms: _313  and  _314
REMARK  128  A    between atoms: _318  and  ZN_601
REMARK  129  A    between atoms: _319  and  _321
REMARK  130  A    between atoms: _321  and  _322
REMARK  131  A    between atoms: _321  and  _324
REMARK  132  A    between atoms: _324  and  _325
REMARK  133  A    between atoms: _325  and  _326
REMARK  134  A    between atoms: _329  and  _331
REMARK  135  A    between atoms: _331  and  _332
REMARK  136  A    between atoms: _331  and  _334
REMARK  137  A    between atoms: _334  and  _335
REMARK  138  A    between atoms: _340  and  _341
REMARK  139  A    between atoms: _343  and  _345
REMARK  140  A    between atoms: _345  and  _346
REMARK  141  A    between atoms: _345  and  _348
REMARK  142  A    between atoms: _348  and  _349
REMARK  143  A    between atoms: _353  and  ZN_601
REMARK  144  A    between atoms: _354  and  _356
REMARK  145  A    between atoms: _356  and  _357
REMARK  146  A    between atoms: _356  and  _359
REMARK  147  A    between atoms: _359  and  _360
REMARK  148  A    between atoms: _365  and  _367
REMARK  149  A    between atoms: _367  and  _368
REMARK  150  A    between atoms: _367  and  _370
REMARK  151  A    between atoms: _370  and  _371
REMARK  152  A    between atoms: _381  and  _383
REMARK  153  A    between atoms: _383  and  _384
REMARK  154  A    between atoms: _383  and  _386
REMARK  155  A    between atoms: _386  and  _387
REMARK  156  A    between atoms: _390  and  _392
REMARK  157  A    between atoms: _392  and  _393
REMARK  158  A    between atoms: _392  and  _395
REMARK  159  A    between atoms: _395  and  _396
REMARK  160  A    between atoms: _396  and  _397
REMARK  161  A    between atoms: _397  and  _398
REMARK  162  A    between atoms: _398  and  _399
REMARK  163  A    between atoms: _403  and  _405
REMARK  164  A    between atoms: _405  and  _406
REMARK  165  A    between atoms: _405  and  _408
REMARK  166  A    between atoms: _408  and  _409
REMARK  167  A    between atoms: _409  and  _410
REMARK  168  A    between atoms: _410  and  _411
REMARK  169  A    between atoms: _411  and  ZN_601
REMARK  170  A    between atoms: _413  and  _415
REMARK  171  A    between atoms: _415  and  _416
REMARK  172  A    between atoms: _418  and  _420
REMARK  173  A    between atoms: _420  and  _421
REMARK  174  A    between atoms: _420  and  _423
REMARK  175  A    between atoms: _423  and  _424
REMARK  176  A    between atoms: _427  and  _429
REMARK  177  A    between atoms: _429  and  _430
REMARK  178  A    between atoms: _429  and  _432
REMARK  179  A    between atoms: _435  and  _437
REMARK  180  A    between atoms: _437  and  _438
REMARK  181  A    between atoms: _437  and  _440
REMARK  182  A    between atoms: _440  and  _441
REMARK  183  A    between atoms: _441  and  _442
REMARK  184  A    between atoms: _445  and  _447
REMARK  185  A    between atoms: _447  and  _448
REMARK  186  A    between atoms: _447  and  _450
REMARK  187  A    between atoms: _450  and  _451
REMARK  188  A    between atoms: _456  and  _458
REMARK  189  A    between atoms: _458  and  _459
REMARK  190  A    between atoms: _458  and  _461
REMARK  191  A    between atoms: _461  and  _462
REMARK  192  A    between atoms: _464  and  _466
REMARK  193  A    between atoms: _466  and  _467
REMARK  194  A    between atoms: _466  and  _469
REMARK  195  A    between atoms: _469  and  _470
REMARK  196  A    between atoms: _470  and  _471
REMARK  197  A    between atoms: _473  and  _475
REMARK  198  A    between atoms: _475  and  _476
REMARK  199  A    between atoms: _475  and  _478
REMARK  200  A    between atoms: _478  and  _479
REMARK  201  A    between atoms: _479  and  _480
REMARK  202  A    between atoms: _483  and  _485
REMARK  203  A    between atoms: _485  and  _486
REMARK  204  A    between atoms: _485  and  _488
REMARK  205  A    between atoms: _488  and  _489
REMARK  206  A    between atoms: _494  and  _496
REMARK  207  A    between atoms: _496  and  _497
REMARK  208  A    between atoms: _496  and  _499
REMARK  209  A    between atoms: _499  and  _500
REMARK  210  A    between atoms: _506  and  _508
REMARK  211  A    between atoms: _508  and  _509
REMARK  212  A    between atoms: _508  and  _511
REMARK  213  A    between atoms: _511  and  _512
REMARK  214  A    between atoms: _517  and  _518
REMARK  215  A    between atoms: _520  and  _522
REMARK  216  A    between atoms: _522  and  _523
REMARK  217  A    between atoms: _522  and  _525
REMARK  218  A    between atoms: _525  and  _526
REMARK  219  A    between atoms: _529  and  _531
REMARK  220  A    between atoms: _531  and  _532
REMARK  221  A    between atoms: _531  and  _534
REMARK  222  A    between atoms: _534  and  _535
REMARK  223  A    between atoms: _540  and  _541
REMARK  224  A    between atoms: _543  and  _545
REMARK  225  A    between atoms: _545  and  _546
REMARK  226  A    between atoms: _545  and  _548
REMARK  227  A    between atoms: _548  and  _549
REMARK  228  A    between atoms: _552  and  _554
REMARK  229  A    between atoms: _554  and  _555
REMARK  230  A    between atoms: _554  and  _557
REMARK  231  A    between atoms: _557  and  _558
REMARK  232  A    between atoms: _558  and  _559
REMARK  233  A    between atoms: _559  and  _560
REMARK  234  A    between atoms: _569  and  _571
REMARK  235  A    between atoms: _571  and  _572
REMARK  236  A    between atoms: _571  and  _574
REMARK  237  A    between atoms: _574  and  _575
REMARK  238  A    between atoms: _575  and  _576
REMARK  239  A    between atoms: _578  and  _580
REMARK  240  A    between atoms: _580  and  _581
REMARK  241  A    between atoms: _580  and  _583
REMARK  242  A    between atoms: _583  and  _584
REMARK  243  A    between atoms: _584  and  _585
REMARK  244  A    between atoms: _590  and  _592
REMARK  245  A    between atoms: _592  and  _593
REMARK  246  A    between atoms: _592  and  _595
REMARK  247  A    between atoms: _595  and  _596
REMARK                            x       y       z     vdW  Elec       q    Type
REMARK                         _______ _______ _______ _____ _____    ______ ____
ROOT
ATOM      1 MG   UNL     1      20.207   3.485   2.597  0.00  0.00    +0.000 Mg
ATOM      2  O   UNL     1      18.575   4.504   3.330  0.00  0.00    +0.000 OA
ATOM      3  O   UNL     1      20.072   4.919   0.972  0.00  0.00    +0.000 OA
ENDROOT
TORSDOF 0
REMARK  Name = ../refined-set-2016/3ebi/3ebi_pocket.pdb
REMARK  247 active torsions:
REMARK  status: ('A' for Active; 'I' for Inactive)
REMARK    1  A    between atoms: _1  and  _3
REMARK    2  A    between atoms: _3  and  _4
REMARK    3  A    between atoms: _7  and  _9
REMARK    4  A    between atoms: _9  and  _10
REMARK    5  A    between atoms: _9  and  _12
REMARK    6  A    between atoms: _12  and  _13
REMARK    7  A    between atoms: _16  and  _18
REMARK    8  A    between atoms: _18  and  _19
REMARK    9  A    between atoms: _18  and  _21
REMARK   10  A    between atoms: _21  and  _22
REMARK   11  A    between atoms: _25  and  _27
REMARK   12  A    between atoms: _27  and  _28
REMARK   13  A    between atoms: _30  and  _32
REMARK   14  A    between atoms: _32  and  _33
REMARK   15  A    between atoms: _32  and  _35
REMARK   16  A    between atoms: _35  and  _36
REMARK   17  A    between atoms: _36  and  _37
REMARK   18  A    between atoms: _42  and  _44
REMARK   19  A    between atoms: _44  and  _45
REMARK   20  A    between atoms: _44  and  _47
REMARK   21  A    between atoms: _49  and  _51
REMARK   22  A    between atoms: _51  and  _52
REMARK   23  A    between atoms: _51  and  _54
REMARK   24  A    between atoms: _54  and  _55
REMARK   25  A    between atoms: _55  and  _56
REMARK   26  A    between atoms: _59  and  _61
REMARK   27  A    between atoms: _61  and  _62
REMARK   28  A    between atoms: _65  and  _67
REMARK   29  A    between atoms: _67  and  _68
REMARK   30  A    between atoms: _67  and  _70
REMARK   31  A    between atoms: _70  and  _71
REMARK   32  A    between atoms: _74  and  _76
REMARK   33  A    between atoms: _76  and  _77
REMARK   34  A    between atoms: _79  and  _81
REMARK   35  A    between atoms: _81  and  _82
REMARK   36  A    between atoms: _81  and  _84
REMARK   37  A    between atoms: _84  and  _85
REMARK   38  A    between atoms: _90  and  _91
REMARK   39  A    between atoms: _93  and  _95
REMARK   40  A    between atoms: _95  and  _96
REMARK   41  A    between atoms: _95  and  _98
REMARK   42  A    between atoms: _98  and  _99
REMARK   43  A    between atoms: _102  and  _104
REMARK   44  A    between atoms: _104  and  _105
REMARK   45  A    between atoms: _104  and  _107
REMARK   46  A    between atoms: _107  and  _108
REMARK   47  A    between atoms: _114  and  _116
REMARK   48  A    between atoms: _116  and  _117
REMARK   49  A    between atoms: _116  and  _119
REMARK   50  A    between atoms: _119  and  _120
REMARK   51  A    between atoms: _125  and  _127
REMARK   52  A    between atoms: _127  and  _128
REMARK   53  A    between atoms: _127  and  _130
REMARK   54  A    between atoms: _133  and  _135
REMARK   55  A    between atoms: _135  and  _136
REMARK   56  A    between atoms: _138  and  _140
REMARK   57  A    between atoms: _140  and  _141
REMARK   58  A    between atoms: _144  and  _146
REMARK   59  A    between atoms: _146  and  _147
REMARK   60  A    between atoms: _146  and  _149
REMARK   61  A    between atoms: _149  and  _150
REMARK   62  A    between atoms: _150  and  _151
REMARK   63  A    between atoms: _153  and  _155
REMARK   64  A    between atoms: _155  and  _156
REMARK   65  A    between atoms: _155  and  _158
REMARK   66  A    between atoms: _158  and  _159
REMARK   67  A    between atoms: _159  and  _160
REMARK   68  A    between atoms: _163  and  _165
REMARK   69  A    between atoms: _165  and  _166
REMARK   70  A    between atoms: _165  and  _168
REMARK   71  A    between atoms: _168  and  _169
REMARK   72  A    between atoms: _174  and  _176
REMARK   73  A    between atoms: _176  and  _177
REMARK   74  A    between atoms: _176  and  _179
REMARK   75  A    between atoms: _179  and  _180
REMARK   76  A    between atoms: _183  and  _185
REMARK   77  A    between atoms: _185  and  _186
REMARK   78  A    between atoms: _185  and  _188
REMARK   79  A    between atoms: _188  and  _189
REMARK   80  A    between atoms: _195  and  _197
REMARK   81  A    between atoms: _197  and  _198
REMARK   82  A    between atoms: _197  and  _200
REMARK   83  A    between atoms: _200  and  _201
REMARK   84  A    between atoms: _206  and  _208
REMARK   85  A    between atoms: _208  and  _209
REMARK   86  A    between atoms: _208  and  _211
REMARK   87  A    between atoms: _211  and  _212
REMARK   88  A    between atoms: _217  and  _219
REMARK   89  A    between atoms: _219  and  _220
REMARK   90  A    between atoms: _219  and  _222
REMARK   91  A    between atoms: _222  and  _223
REMARK   92  A    between atoms: _225  and  _227
REMARK   93  A    between atoms: _227  and  _228
REMARK   94  A    between atoms: _227  and  _230
REMARK   95  A    between atoms: _230  and  _231
REMARK   96  A    between atoms: _237  and  _239
REMARK   97  A    between atoms: _239  and  _240
REMARK   98  A    between atoms: _243  and  _245
REMARK   99  A    between atoms: _245  and  _246
REMARK  100  A    between atoms: _245  and  _248
REMARK  101  A    between atoms: _248  and  _249
REMARK  102  A    between atoms: _249  and  _250
REMARK  103  A    between atoms: _250  and  _251
REMARK  104  A    between atoms: _260  and  _262
REMARK  105  A    between atoms: _262  and  _263
REMARK  106  A    between atoms: _262  and  _265
REMARK  107  A    between atoms: _265  and  _266
REMARK  108  A    between atoms: _269  and  _271
REMARK  109  A    between atoms: _271  and  _272
REMARK  110  A    between atoms: _271  and  _274
REMARK  111  A    between atoms: _274  and  _275
REMARK  112  A    between atoms: _278  and  _280
REMARK  113  A    between atoms: _280  and  _281
REMARK  114  A    between atoms: _280  and  _283
REMARK  115  A    between atoms: _283  and  _284
REMARK  116  A    between atoms: _287  and  _289
REMARK  117  A    between atoms: _289  and  _290
REMARK  118  A    between atoms: _289  and  _292
REMARK  119  A    between atoms: _295  and  _297
REMARK  120  A    between atoms: _297  and  _298
REMARK  121  A    between atoms: _297  and  _300
REMARK  122  A    between atoms: _303  and  _305
REMARK  123  A    between atoms: _305  and  _306
REMARK  124  A    between atoms: _308  and  _310
REMARK  125  A    between atoms: _310  and  _311
REMARK  126  A    between atoms: _310  and  _313
REMARK  127  A    between atoms: _313  and  _314
REMARK  128  A    between atoms: _318  and  ZN_601
REMARK  129  A    between atoms: _319  and  _321
REMARK  130  A    between atoms: _321  and  _322
REMARK  131  A    between atoms: _321  and  _324
REMARK  132  A    between atoms: _324  and  _325
REMARK  133  A    between atoms: _325  and  _326
REMARK  134  A    between atoms: _329  and  _331
REMARK  135  A    between atoms: _331  and  _332
REMARK  136  A    between atoms: _331  and  _334
REMARK  137  A    between atoms: _334  and  _335
REMARK  138  A    between atoms: _340  and  _341
REMARK  139  A    between atoms: _343  and  _345
REMARK  140  A    between atoms: _345  and  _346
REMARK  141  A    between atoms: _345  and  _348
REMARK  142  A    between atoms: _348  and  _349
REMARK  143  A    between atoms: _353  and  ZN_601
REMARK  144  A    between atoms: _354  and  _356
REMARK  145  A    between atoms: _356  and  _357
REMARK  146  A    between atoms: _356  and  _359
REMARK  147  A    between atoms: _359  and  _360
REMARK  148  A    between atoms: _365  and  _367
REMARK  149  A    between atoms: _367  and  _368
REMARK  150  A    between atoms: _367  and  _370
REMARK  151  A    between atoms: _370  and  _371
REMARK  152  A    between atoms: _381  and  _383
REMARK  153  A    between atoms: _383  and  _384
REMARK  154  A    between atoms: _383  and  _386
REMARK  155  A    between atoms: _386  and  _387
REMARK  156  A    between atoms: _390  and  _392
REMARK  157  A    between atoms: _392  and  _393
REMARK  158  A    between atoms: _392  and  _395
REMARK  159  A    between atoms: _395  and  _396
REMARK  160  A    between atoms: _396  and  _397
REMARK  161  A    between atoms: _397  and  _398
REMARK  162  A    between atoms: _398  and  _399
REMARK  163  A    between atoms: _403  and  _405
REMARK  164  A    between atoms: _405  and  _406
REMARK  165  A    between atoms: _405  and  _408
REMARK  166  A    between atoms: _408  and  _409
REMARK  167  A    between atoms: _409  and  _410
REMARK  168  A    between atoms: _410  and  _411
REMARK  169  A    between atoms: _411  and  ZN_601
REMARK  170  A    between atoms: _413  and  _415
REMARK  171  A    between atoms: _415  and  _416
REMARK  172  A    between atoms: _418  and  _420
REMARK  173  A    between atoms: _420  and  _421
REMARK  174  A    between atoms: _420  and  _423
REMARK  175  A    between atoms: _423  and  _424
REMARK  176  A    between atoms: _427  and  _429
REMARK  177  A    between atoms: _429  and  _430
REMARK  178  A    between atoms: _429  and  _432
REMARK  179  A    between atoms: _435  and  _437
REMARK  180  A    between atoms: _437  and  _438
REMARK  181  A    between atoms: _437  and  _440
REMARK  182  A    between atoms: _440  and  _441
REMARK  183  A    between atoms: _441  and  _442
REMARK  184  A    between atoms: _445  and  _447
REMARK  185  A    between atoms: _447  and  _448
REMARK  186  A    between atoms: _447  and  _450
REMARK  187  A    between atoms: _450  and  _451
REMARK  188  A    between atoms: _456  and  _458
REMARK  189  A    between atoms: _458  and  _459
REMARK  190  A    between atoms: _458  and  _461
REMARK  191  A    between atoms: _461  and  _462
REMARK  192  A    between atoms: _464  and  _466
REMARK  193  A    between atoms: _466  and  _467
REMARK  194  A    between atoms: _466  and  _469
REMARK  195  A    between atoms: _469  and  _470
REMARK  196  A    between atoms: _470  and  _471
REMARK  197  A    between atoms: _473  and  _475
REMARK  198  A    between atoms: _475  and  _476
REMARK  199  A    between atoms: _475  and  _478
REMARK  200  A    between atoms: _478  and  _479
REMARK  201  A    between atoms: _479  and  _480
REMARK  202  A    between atoms: _483  and  _485
REMARK  203  A    between atoms: _485  and  _486
REMARK  204  A    between atoms: _485  and  _488
REMARK  205  A    between atoms: _488  and  _489
REMARK  206  A    between atoms: _494  and  _496
REMARK  207  A    between atoms: _496  and  _497
REMARK  208  A    between atoms: _496  and  _499
REMARK  209  A    between atoms: _499  and  _500
REMARK  210  A    between atoms: _506  and  _508
REMARK  211  A    between atoms: _508  and  _509
REMARK  212  A    between atoms: _508  and  _511
REMARK  213  A    between atoms: _511  and  _512
REMARK  214  A    between atoms: _517  and  _518
REMARK  215  A    between atoms: _520  and  _522
REMARK  216  A    between atoms: _522  and  _523
REMARK  217  A    between atoms: _522  and  _525
REMARK  218  A    between atoms: _525  and  _526
REMARK  219  A    between atoms: _529  and  _531
REMARK  220  A    between atoms: _531  and  _532
REMARK  221  A    between atoms: _531  and  _534
REMARK  222  A    between atoms: _534  and  _535
REMARK  223  A    between atoms: _540  and  _541
REMARK  224  A    between atoms: _543  and  _545
REMARK  225  A    between atoms: _545  and  _546
REMARK  226  A    between atoms: _545  and  _548
REMARK  227  A    between atoms: _548  and  _549
REMARK  228  A    between atoms: _552  and  _554
REMARK  229  A    between atoms: _554  and  _555
REMARK  230  A    between atoms: _554  and  _557
REMARK  231  A    between atoms: _557  and  _558
REMARK  232  A    between atoms: _558  and  _559
REMARK  233  A    between atoms: _559  and  _560
REMARK  234  A    between atoms: _569  and  _571
REMARK  235  A    between atoms: _571  and  _572
REMARK  236  A    between atoms: _571  and  _574
REMARK  237  A    between atoms: _574  and  _575
REMARK  238  A    between atoms: _575  and  _576
REMARK  239  A    between atoms: _578  and  _580
REMARK  240  A    between atoms: _580  and  _581
REMARK  241  A    between atoms: _580  and  _583
REMARK  242  A    between atoms: _583  and  _584
REMARK  243  A    between atoms: _584  and  _585
REMARK  244  A    between atoms: _590  and  _592
REMARK  245  A    between atoms: _592  and  _593
REMARK  246  A    between atoms: _592  and  _595
REMARK  247  A    between atoms: _595  and  _596
REMARK                            x       y       z     vdW  Elec       q    Type
REMARK                         _______ _______ _______ _____ _____    ______ ____
ROOT
ATOM      1  O   HOH     1       7.004  15.883   9.534  0.00  0.00    +0.000 OA
ENDROOT
TORSDOF 0
REMARK  Name = ../refined-set-2016/3ebi/3ebi_pocket.pdb
REMARK  247 active torsions:
REMARK  status: ('A' for Active; 'I' for Inactive)
REMARK    1  A    between atoms: _1  and  _3
REMARK    2  A    between atoms: _3  and  _4
REMARK    3  A    between atoms: _7  and  _9
REMARK    4  A    between atoms: _9  and  _10
REMARK    5  A    between atoms: _9  and  _12
REMARK    6  A    between atoms: _12  and  _13
REMARK    7  A    between atoms: _16  and  _18
REMARK    8  A    between atoms: _18  and  _19
REMARK    9  A    between atoms: _18  and  _21
REMARK   10  A    between atoms: _21  and  _22
REMARK   11  A    between atoms: _25  and  _27
REMARK   12  A    between atoms: _27  and  _28
REMARK   13  A    between atoms: _30  and  _32
REMARK   14  A    between atoms: _32  and  _33
REMARK   15  A    between atoms: _32  and  _35
REMARK   16  A    between atoms: _35  and  _36
REMARK   17  A    between atoms: _36  and  _37
REMARK   18  A    between atoms: _42  and  _44
REMARK   19  A    between atoms: _44  and  _45
REMARK   20  A    between atoms: _44  and  _47
REMARK   21  A    between atoms: _49  and  _51
REMARK   22  A    between atoms: _51  and  _52
REMARK   23  A    between atoms: _51  and  _54
REMARK   24  A    between atoms: _54  and  _55
REMARK   25  A    between atoms: _55  and  _56
REMARK   26  A    between atoms: _59  and  _61
REMARK   27  A    between atoms: _61  and  _62
REMARK   28  A    between atoms: _65  and  _67
REMARK   29  A    between atoms: _67  and  _68
REMARK   30  A    between atoms: _67  and  _70
REMARK   31  A    between atoms: _70  and  _71
REMARK   32  A    between atoms: _74  and  _76
REMARK   33  A    between atoms: _76  and  _77
REMARK   34  A    between atoms: _79  and  _81
REMARK   35  A    between atoms: _81  and  _82
REMARK   36  A    between atoms: _81  and  _84
REMARK   37  A    between atoms: _84  and  _85
REMARK   38  A    between atoms: _90  and  _91
REMARK   39  A    between atoms: _93  and  _95
REMARK   40  A    between atoms: _95  and  _96
REMARK   41  A    between atoms: _95  and  _98
REMARK   42  A    between atoms: _98  and  _99
REMARK   43  A    between atoms: _102  and  _104
REMARK   44  A    between atoms: _104  and  _105
REMARK   45  A    between atoms: _104  and  _107
REMARK   46  A    between atoms: _107  and  _108
REMARK   47  A    between atoms: _114  and  _116
REMARK   48  A    between atoms: _116  and  _117
REMARK   49  A    between atoms: _116  and  _119
REMARK   50  A    between atoms: _119  and  _120
REMARK   51  A    between atoms: _125  and  _127
REMARK   52  A    between atoms: _127  and  _128
REMARK   53  A    between atoms: _127  and  _130
REMARK   54  A    between atoms: _133  and  _135
REMARK   55  A    between atoms: _135  and  _136
REMARK   56  A    between atoms: _138  and  _140
REMARK   57  A    between atoms: _140  and  _141
REMARK   58  A    between atoms: _144  and  _146
REMARK   59  A    between atoms: _146  and  _147
REMARK   60  A    between atoms: _146  and  _149
REMARK   61  A    between atoms: _149  and  _150
REMARK   62  A    between atoms: _150  and  _151
REMARK   63  A    between atoms: _153  and  _155
REMARK   64  A    between atoms: _155  and  _156
REMARK   65  A    between atoms: _155  and  _158
REMARK   66  A    between atoms: _158  and  _159
REMARK   67  A    between atoms: _159  and  _160
REMARK   68  A    between atoms: _163  and  _165
REMARK   69  A    between atoms: _165  and  _166
REMARK   70  A    between atoms: _165  and  _168
REMARK   71  A    between atoms: _168  and  _169
REMARK   72  A    between atoms: _174  and  _176
REMARK   73  A    between atoms: _176  and  _177
REMARK   74  A    between atoms: _176  and  _179
REMARK   75  A    between atoms: _179  and  _180
REMARK   76  A    between atoms: _183  and  _185
REMARK   77  A    between atoms: _185  and  _186
REMARK   78  A    between atoms: _185  and  _188
REMARK   79  A    between atoms: _188  and  _189
REMARK   80  A    between atoms: _195  and  _197
REMARK   81  A    between atoms: _197  and  _198
REMARK   82  A    between atoms: _197  and  _200
REMARK   83  A    between atoms: _200  and  _201
REMARK   84  A    between atoms: _206  and  _208
REMARK   85  A    between atoms: _208  and  _209
REMARK   86  A    between atoms: _208  and  _211
REMARK   87  A    between atoms: _211  and  _212
REMARK   88  A    between atoms: _217  and  _219
REMARK   89  A    between atoms: _219  and  _220
REMARK   90  A    between atoms: _219  and  _222
REMARK   91  A    between atoms: _222  and  _223
REMARK   92  A    between atoms: _225  and  _227
REMARK   93  A    between atoms: _227  and  _228
REMARK   94  A    between atoms: _227  and  _230
REMARK   95  A    between atoms: _230  and  _231
REMARK   96  A    between atoms: _237  and  _239
REMARK   97  A    between atoms: _239  and  _240
REMARK   98  A    between atoms: _243  and  _245
REMARK   99  A    between atoms: _245  and  _246
REMARK  100  A    between atoms: _245  and  _248
REMARK  101  A    between atoms: _248  and  _249
REMARK  102  A    between atoms: _249  and  _250
REMARK  103  A    between atoms: _250  and  _251
REMARK  104  A    between atoms: _260  and  _262
REMARK  105  A    between atoms: _262  and  _263
REMARK  106  A    between atoms: _262  and  _265
REMARK  107  A    between atoms: _265  and  _266
REMARK  108  A    between atoms: _269  and  _271
REMARK  109  A    between atoms: _271  and  _272
REMARK  110  A    between atoms: _271  and  _274
REMARK  111  A    between atoms: _274  and  _275
REMARK  112  A    between atoms: _278  and  _280
REMARK  113  A    between atoms: _280  and  _281
REMARK  114  A    between atoms: _280  and  _283
REMARK  115  A    between atoms: _283  and  _284
REMARK  116  A    between atoms: _287  and  _289
REMARK  117  A    between atoms: _289  and  _290
REMARK  118  A    between atoms: _289  and  _292
REMARK  119  A    between atoms: _295  and  _297
REMARK  120  A    between atoms: _297  and  _298
REMARK  121  A    between atoms: _297  and  _300
REMARK  122  A    between atoms: _303  and  _305
REMARK  123  A    between atoms: _305  and  _306
REMARK  124  A    between atoms: _308  and  _310
REMARK  125  A    between atoms: _310  and  _311
REMARK  126  A    between atoms: _310  and  _313
REMARK  127  A    between atoms: _313  and  _314
REMARK  128  A    between atoms: _318  and  ZN_601
REMARK  129  A    between atoms: _319  and  _321
REMARK  130  A    between atoms: _321  and  _322
REMARK  131  A    between atoms: _321  and  _324
REMARK  132  A    between atoms: _324  and  _325
REMARK  133  A    between atoms: _325  and  _326
REMARK  134  A    between atoms: _329  and  _331
REMARK  135  A    between atoms: _331  and  _332
REMARK  136  A    between atoms: _331  and  _334
REMARK  137  A    between atoms: _334  and  _335
REMARK  138  A    between atoms: _340  and  _341
REMARK  139  A    between atoms: _343  and  _345
REMARK  140  A    between atoms: _345  and  _346
REMARK  141  A    between atoms: _345  and  _348
REMARK  142  A    between atoms: _348  and  _349
REMARK  143  A    between atoms: _353  and  ZN_601
REMARK  144  A    between atoms: _354  and  _356
REMARK  145  A    between atoms: _356  and  _357
REMARK  146  A    between atoms: _356  and  _359
REMARK  147  A    between atoms: _359  and  _360
REMARK  148  A    between atoms: _365  and  _367
REMARK  149  A    between atoms: _367  and  _368
REMARK  150  A    between atoms: _367  and  _370
REMARK  151  A    between atoms: _370  and  _371
REMARK  152  A    between atoms: _381  and  _383
REMARK  153  A    between atoms: _383  and  _384
REMARK  154  A    between atoms: _383  and  _386
REMARK  155  A    between atoms: _386  and  _387
REMARK  156  A    between atoms: _390  and  _392
REMARK  157  A    between atoms: _392  and  _393
REMARK  158  A    between atoms: _392  and  _395
REMARK  159  A    between atoms: _395  and  _396
REMARK  160  A    between atoms: _396  and  _397
REMARK  161  A    between atoms: _397  and  _398
REMARK  162  A    between atoms: _398  and  _399
REMARK  163  A    between atoms: _403  and  _405
REMARK  164  A    between atoms: _405  and  _406
REMARK  165  A    between atoms: _405  and  _408
REMARK  166  A    between atoms: _408  and  _409
REMARK  167  A    between atoms: _409  and  _410
REMARK  168  A    between atoms: _410  and  _411
REMARK  169  A    between atoms: _411  and  ZN_601
REMARK  170  A    between atoms: _413  and  _415
REMARK  171  A    between atoms: _415  and  _416
REMARK  172  A    between atoms: _418  and  _420
REMARK  173  A    between atoms: _420  and  _421
REMARK  174  A    between atoms: _420  and  _423
REMARK  175  A    between atoms: _423  and  _424
REMARK  176  A    between atoms: _427  and  _429
REMARK  177  A    between atoms: _429  and  _430
REMARK  178  A    between atoms: _429  and  _432
REMARK  179  A    between atoms: _435  and  _437
REMARK  180  A    between atoms: _437  and  _438
REMARK  181  A    between atoms: _437  and  _440
REMARK  182  A    between atoms: _440  and  _441
REMARK  183  A    between atoms: _441  and  _442
REMARK  184  A    between atoms: _445  and  _447
REMARK  185  A    between atoms: _447  and  _448
REMARK  186  A    between atoms: _447  and  _450
REMARK  187  A    between atoms: _450  and  _451
REMARK  188  A    between atoms: _456  and  _458
REMARK  189  A    between atoms: _458  and  _459
REMARK  190  A    between atoms: _458  and  _461
REMARK  191  A    between atoms: _461  and  _462
REMARK  192  A    between atoms: _464  and  _466
REMARK  193  A    between atoms: _466  and  _467
REMARK  194  A    between atoms: _466  and  _469
REMARK  195  A    between atoms: _469  and  _470
REMARK  196  A    between atoms: _470  and  _471
REMARK  197  A    between atoms: _473  and  _475
REMARK  198  A    between atoms: _475  and  _476
REMARK  199  A    between atoms: _475  and  _478
REMARK  200  A    between atoms: _478  and  _479
REMARK  201  A    between atoms: _479  and  _480
REMARK  202  A    between atoms: _483  and  _485
REMARK  203  A    between atoms: _485  and  _486
REMARK  204  A    between atoms: _485  and  _488
REMARK  205  A    between atoms: _488  and  _489
REMARK  206  A    between atoms: _494  and  _496
REMARK  207  A    between atoms: _496  and  _497
REMARK  208  A    between atoms: _496  and  _499
REMARK  209  A    between atoms: _499  and  _500
REMARK  210  A    between atoms: _506  and  _508
REMARK  211  A    between atoms: _508  and  _509
REMARK  212  A    between atoms: _508  and  _511
REMARK  213  A    between atoms: _511  and  _512
REMARK  214  A    between atoms: _517  and  _518
REMARK  215  A    between atoms: _520  and  _522
REMARK  216  A    between atoms: _522  and  _523
REMARK  217  A    between atoms: _522  and  _525
REMARK  218  A    between atoms: _525  and  _526
REMARK  219  A    between atoms: _529  and  _531
REMARK  220  A    between atoms: _531  and  _532
REMARK  221  A    between atoms: _531  and  _534
REMARK  222  A    between atoms: _534  and  _535
REMARK  223  A    between atoms: _540  and  _541
REMARK  224  A    between atoms: _543  and  _545
REMARK  225  A    between atoms: _545  and  _546
REMARK  226  A    between atoms: _545  and  _548
REMARK  227  A    between atoms: _548  and  _549
REMARK  228  A    between atoms: _552  and  _554
REMARK  229  A    between atoms: _554  and  _555
REMARK  230  A    between atoms: _554  and  _557
REMARK  231  A    between atoms: _557  and  _558
REMARK  232  A    between atoms: _558  and  _559
REMARK  233  A    between atoms: _559  and  _560
REMARK  234  A    between atoms: _569  and  _571
REMARK  235  A    between atoms: _571  and  _572
REMARK  236  A    between atoms: _571  and  _574
REMARK  237  A    between atoms: _574  and  _575
REMARK  238  A    between atoms: _575  and  _576
REMARK  239  A    between atoms: _578  and  _580
REMARK  240  A    between atoms: _580  and  _581
REMARK  241  A    between atoms: _580  and  _583
REMARK  242  A    between atoms: _583  and  _584
REMARK  243  A    between atoms: _584  and  _585
REMARK  244  A    between atoms: _590  and  _592
REMARK  245  A    between atoms: _592  and  _593
REMARK  246  A    between atoms: _592  and  _595
REMARK  247  A    between atoms: _595  and  _596
REMARK                            x       y       z     vdW  Elec       q    Type
REMARK                         _______ _______ _______ _____ _____    ______ ____
ROOT
ATOM      1  O   HOH     1      11.142  18.988  16.212  0.00  0.00    +0.000 OA
ENDROOT
TORSDOF 0
REMARK  Name = ../refined-set-2016/3ebi/3ebi_pocket.pdb
REMARK  247 active torsions:
REMARK  status: ('A' for Active; 'I' for Inactive)
REMARK    1  A    between atoms: _1  and  _3
REMARK    2  A    between atoms: _3  and  _4
REMARK    3  A    between atoms: _7  and  _9
REMARK    4  A    between atoms: _9  and  _10
REMARK    5  A    between atoms: _9  and  _12
REMARK    6  A    between atoms: _12  and  _13
REMARK    7  A    between atoms: _16  and  _18
REMARK    8  A    between atoms: _18  and  _19
REMARK    9  A    between atoms: _18  and  _21
REMARK   10  A    between atoms: _21  and  _22
REMARK   11  A    between atoms: _25  and  _27
REMARK   12  A    between atoms: _27  and  _28
REMARK   13  A    between atoms: _30  and  _32
REMARK   14  A    between atoms: _32  and  _33
REMARK   15  A    between atoms: _32  and  _35
REMARK   16  A    between atoms: _35  and  _36
REMARK   17  A    between atoms: _36  and  _37
REMARK   18  A    between atoms: _42  and  _44
REMARK   19  A    between atoms: _44  and  _45
REMARK   20  A    between atoms: _44  and  _47
REMARK   21  A    between atoms: _49  and  _51
REMARK   22  A    between atoms: _51  and  _52
REMARK   23  A    between atoms: _51  and  _54
REMARK   24  A    between atoms: _54  and  _55
REMARK   25  A    between atoms: _55  and  _56
REMARK   26  A    between atoms: _59  and  _61
REMARK   27  A    between atoms: _61  and  _62
REMARK   28  A    between atoms: _65  and  _67
REMARK   29  A    between atoms: _67  and  _68
REMARK   30  A    between atoms: _67  and  _70
REMARK   31  A    between atoms: _70  and  _71
REMARK   32  A    between atoms: _74  and  _76
REMARK   33  A    between atoms: _76  and  _77
REMARK   34  A    between atoms: _79  and  _81
REMARK   35  A    between atoms: _81  and  _82
REMARK   36  A    between atoms: _81  and  _84
REMARK   37  A    between atoms: _84  and  _85
REMARK   38  A    between atoms: _90  and  _91
REMARK   39  A    between atoms: _93  and  _95
REMARK   40  A    between atoms: _95  and  _96
REMARK   41  A    between atoms: _95  and  _98
REMARK   42  A    between atoms: _98  and  _99
REMARK   43  A    between atoms: _102  and  _104
REMARK   44  A    between atoms: _104  and  _105
REMARK   45  A    between atoms: _104  and  _107
REMARK   46  A    between atoms: _107  and  _108
REMARK   47  A    between atoms: _114  and  _116
REMARK   48  A    between atoms: _116  and  _117
REMARK   49  A    between atoms: _116  and  _119
REMARK   50  A    between atoms: _119  and  _120
REMARK   51  A    between atoms: _125  and  _127
REMARK   52  A    between atoms: _127  and  _128
REMARK   53  A    between atoms: _127  and  _130
REMARK   54  A    between atoms: _133  and  _135
REMARK   55  A    between atoms: _135  and  _136
REMARK   56  A    between atoms: _138  and  _140
REMARK   57  A    between atoms: _140  and  _141
REMARK   58  A    between atoms: _144  and  _146
REMARK   59  A    between atoms: _146  and  _147
REMARK   60  A    between atoms: _146  and  _149
REMARK   61  A    between atoms: _149  and  _150
REMARK   62  A    between atoms: _150  and  _151
REMARK   63  A    between atoms: _153  and  _155
REMARK   64  A    between atoms: _155  and  _156
REMARK   65  A    between atoms: _155  and  _158
REMARK   66  A    between atoms: _158  and  _159
REMARK   67  A    between atoms: _159  and  _160
REMARK   68  A    between atoms: _163  and  _165
REMARK   69  A    between atoms: _165  and  _166
REMARK   70  A    between atoms: _165  and  _168
REMARK   71  A    between atoms: _168  and  _169
REMARK   72  A    between atoms: _174  and  _176
REMARK   73  A    between atoms: _176  and  _177
REMARK   74  A    between atoms: _176  and  _179
REMARK   75  A    between atoms: _179  and  _180
REMARK   76  A    between atoms: _183  and  _185
REMARK   77  A    between atoms: _185  and  _186
REMARK   78  A    between atoms: _185  and  _188
REMARK   79  A    between atoms: _188  and  _189
REMARK   80  A    between atoms: _195  and  _197
REMARK   81  A    between atoms: _197  and  _198
REMARK   82  A    between atoms: _197  and  _200
REMARK   83  A    between atoms: _200  and  _201
REMARK   84  A    between atoms: _206  and  _208
REMARK   85  A    between atoms: _208  and  _209
REMARK   86  A    between atoms: _208  and  _211
REMARK   87  A    between atoms: _211  and  _212
REMARK   88  A    between atoms: _217  and  _219
REMARK   89  A    between atoms: _219  and  _220
REMARK   90  A    between atoms: _219  and  _222
REMARK   91  A    between atoms: _222  and  _223
REMARK   92  A    between atoms: _225  and  _227
REMARK   93  A    between atoms: _227  and  _228
REMARK   94  A    between atoms: _227  and  _230
REMARK   95  A    between atoms: _230  and  _231
REMARK   96  A    between atoms: _237  and  _239
REMARK   97  A    between atoms: _239  and  _240
REMARK   98  A    between atoms: _243  and  _245
REMARK   99  A    between atoms: _245  and  _246
REMARK  100  A    between atoms: _245  and  _248
REMARK  101  A    between atoms: _248  and  _249
REMARK  102  A    between atoms: _249  and  _250
REMARK  103  A    between atoms: _250  and  _251
REMARK  104  A    between atoms: _260  and  _262
REMARK  105  A    between atoms: _262  and  _263
REMARK  106  A    between atoms: _262  and  _265
REMARK  107  A    between atoms: _265  and  _266
REMARK  108  A    between atoms: _269  and  _271
REMARK  109  A    between atoms: _271  and  _272
REMARK  110  A    between atoms: _271  and  _274
REMARK  111  A    between atoms: _274  and  _275
REMARK  112  A    between atoms: _278  and  _280
REMARK  113  A    between atoms: _280  and  _281
REMARK  114  A    between atoms: _280  and  _283
REMARK  115  A    between atoms: _283  and  _284
REMARK  116  A    between atoms: _287  and  _289
REMARK  117  A    between atoms: _289  and  _290
REMARK  118  A    between atoms: _289  and  _292
REMARK  119  A    between atoms: _295  and  _297
REMARK  120  A    between atoms: _297  and  _298
REMARK  121  A    between atoms: _297  and  _300
REMARK  122  A    between atoms: _303  and  _305
REMARK  123  A    between atoms: _305  and  _306
REMARK  124  A    between atoms: _308  and  _310
REMARK  125  A    between atoms: _310  and  _311
REMARK  126  A    between atoms: _310  and  _313
REMARK  127  A    between atoms: _313  and  _314
REMARK  128  A    between atoms: _318  and  ZN_601
REMARK  129  A    between atoms: _319  and  _321
REMARK  130  A    between atoms: _321  and  _322
REMARK  131  A    between atoms: _321  and  _324
REMARK  132  A    between atoms: _324  and  _325
REMARK  133  A    between atoms: _325  and  _326
REMARK  134  A    between atoms: _329  and  _331
REMARK  135  A    between atoms: _331  and  _332
REMARK  136  A    between atoms: _331  and  _334
REMARK  137  A    between atoms: _334  and  _335
REMARK  138  A    between atoms: _340  and  _341
REMARK  139  A    between atoms: _343  and  _345
REMARK  140  A    between atoms: _345  and  _346
REMARK  141  A    between atoms: _345  and  _348
REMARK  142  A    between atoms: _348  and  _349
REMARK  143  A    between atoms: _353  and  ZN_601
REMARK  144  A    between atoms: _354  and  _356
REMARK  145  A    between atoms: _356  and  _357
REMARK  146  A    between atoms: _356  and  _359
REMARK  147  A    between atoms: _359  and  _360
REMARK  148  A    between atoms: _365  and  _367
REMARK  149  A    between atoms: _367  and  _368
REMARK  150  A    between atoms: _367  and  _370
REMARK  151  A    between atoms: _370  and  _371
REMARK  152  A    between atoms: _381  and  _383
REMARK  153  A    between atoms: _383  and  _384
REMARK  154  A    between atoms: _383  and  _386
REMARK  155  A    between atoms: _386  and  _387
REMARK  156  A    between atoms: _390  and  _392
REMARK  157  A    between atoms: _392  and  _393
REMARK  158  A    between atoms: _392  and  _395
REMARK  159  A    between atoms: _395  and  _396
REMARK  160  A    between atoms: _396  and  _397
REMARK  161  A    between atoms: _397  and  _398
REMARK  162  A    between atoms: _398  and  _399
REMARK  163  A    between atoms: _403  and  _405
REMARK  164  A    between atoms: _405  and  _406
REMARK  165  A    between atoms: _405  and  _408
REMARK  166  A    between atoms: _408  and  _409
REMARK  167  A    between atoms: _409  and  _410
REMARK  168  A    between atoms: _410  and  _411
REMARK  169  A    between atoms: _411  and  ZN_601
REMARK  170  A    between atoms: _413  and  _415
REMARK  171  A    between atoms: _415  and  _416
REMARK  172  A    between atoms: _418  and  _420
REMARK  173  A    between atoms: _420  and  _421
REMARK  174  A    between atoms: _420  and  _423
REMARK  175  A    between atoms: _423  and  _424
REMARK  176  A    between atoms: _427  and  _429
REMARK  177  A    between atoms: _429  and  _430
REMARK  178  A    between atoms: _429  and  _432
REMARK  179  A    between atoms: _435  and  _437
REMARK  180  A    between atoms: _437  and  _438
REMARK  181  A    between atoms: _437  and  _440
REMARK  182  A    between atoms: _440  and  _441
REMARK  183  A    between atoms: _441  and  _442
REMARK  184  A    between atoms: _445  and  _447
REMARK  185  A    between atoms: _447  and  _448
REMARK  186  A    between atoms: _447  and  _450
REMARK  187  A    between atoms: _450  and  _451
REMARK  188  A    between atoms: _456  and  _458
REMARK  189  A    between atoms: _458  and  _459
REMARK  190  A    between atoms: _458  and  _461
REMARK  191  A    between atoms: _461  and  _462
REMARK  192  A    between atoms: _464  and  _466
REMARK  193  A    between atoms: _466  and  _467
REMARK  194  A    between atoms: _466  and  _469
REMARK  195  A    between atoms: _469  and  _470
REMARK  196  A    between atoms: _470  and  _471
REMARK  197  A    between atoms: _473  and  _475
REMARK  198  A    between atoms: _475  and  _476
REMARK  199  A    between atoms: _475  and  _478
REMARK  200  A    between atoms: _478  and  _479
REMARK  201  A    between atoms: _479  and  _480
REMARK  202  A    between atoms: _483  and  _485
REMARK  203  A    between atoms: _485  and  _486
REMARK  204  A    between atoms: _485  and  _488
REMARK  205  A    between atoms: _488  and  _489
REMARK  206  A    between atoms: _494  and  _496
REMARK  207  A    between atoms: _496  and  _497
REMARK  208  A    between atoms: _496  and  _499
REMARK  209  A    between atoms: _499  and  _500
REMARK  210  A    between atoms: _506  and  _508
REMARK  211  A    between atoms: _508  and  _509
REMARK  212  A    between atoms: _508  and  _511
REMARK  213  A    between atoms: _511  and  _512
REMARK  214  A    between atoms: _517  and  _518
REMARK  215  A    between atoms: _520  and  _522
REMARK  216  A    between atoms: _522  and  _523
REMARK  217  A    between atoms: _522  and  _525
REMARK  218  A    between atoms: _525  and  _526
REMARK  219  A    between atoms: _529  and  _531
REMARK  220  A    between atoms: _531  and  _532
REMARK  221  A    between atoms: _531  and  _534
REMARK  222  A    between atoms: _534  and  _535
REMARK  223  A    between atoms: _540  and  _541
REMARK  224  A    between atoms: _543  and  _545
REMARK  225  A    between atoms: _545  and  _546
REMARK  226  A    between atoms: _545  and  _548
REMARK  227  A    between atoms: _548  and  _549
REMARK  228  A    between atoms: _552  and  _554
REMARK  229  A    between atoms: _554  and  _555
REMARK  230  A    between atoms: _554  and  _557
REMARK  231  A    between atoms: _557  and  _558
REMARK  232  A    between atoms: _558  and  _559
REMARK  233  A    between atoms: _559  and  _560
REMARK  234  A    between atoms: _569  and  _571
REMARK  235  A    between atoms: _571  and  _572
REMARK  236  A    between atoms: _571  and  _574
REMARK  237  A    between atoms: _574  and  _575
REMARK  238  A    between atoms: _575  and  _576
REMARK  239  A    between atoms: _578  and  _580
REMARK  240  A    between atoms: _580  and  _581
REMARK  241  A    between atoms: _580  and  _583
REMARK  242  A    between atoms: _583  and  _584
REMARK  243  A    between atoms: _584  and  _585
REMARK  244  A    between atoms: _590  and  _592
REMARK  245  A    between atoms: _592  and  _593
REMARK  246  A    between atoms: _592  and  _595
REMARK  247  A    between atoms: _595  and  _596
REMARK                            x       y       z     vdW  Elec       q    Type
REMARK                         _______ _______ _______ _____ _____    ______ ____
ROOT
ATOM      1  O   HOH     1      14.989  19.964  15.886  0.00  0.00    +0.000 OA
ENDROOT
TORSDOF 0
REMARK  Name = ../refined-set-2016/3ebi/3ebi_pocket.pdb
REMARK  247 active torsions:
REMARK  status: ('A' for Active; 'I' for Inactive)
REMARK    1  A    between atoms: _1  and  _3
REMARK    2  A    between atoms: _3  and  _4
REMARK    3  A    between atoms: _7  and  _9
REMARK    4  A    between atoms: _9  and  _10
REMARK    5  A    between atoms: _9  and  _12
REMARK    6  A    between atoms: _12  and  _13
REMARK    7  A    between atoms: _16  and  _18
REMARK    8  A    between atoms: _18  and  _19
REMARK    9  A    between atoms: _18  and  _21
REMARK   10  A    between atoms: _21  and  _22
REMARK   11  A    between atoms: _25  and  _27
REMARK   12  A    between atoms: _27  and  _28
REMARK   13  A    between atoms: _30  and  _32
REMARK   14  A    between atoms: _32  and  _33
REMARK   15  A    between atoms: _32  and  _35
REMARK   16  A    between atoms: _35  and  _36
REMARK   17  A    between atoms: _36  and  _37
REMARK   18  A    between atoms: _42  and  _44
REMARK   19  A    between atoms: _44  and  _45
REMARK   20  A    between atoms: _44  and  _47
REMARK   21  A    between atoms: _49  and  _51
REMARK   22  A    between atoms: _51  and  _52
REMARK   23  A    between atoms: _51  and  _54
REMARK   24  A    between atoms: _54  and  _55
REMARK   25  A    between atoms: _55  and  _56
REMARK   26  A    between atoms: _59  and  _61
REMARK   27  A    between atoms: _61  and  _62
REMARK   28  A    between atoms: _65  and  _67
REMARK   29  A    between atoms: _67  and  _68
REMARK   30  A    between atoms: _67  and  _70
REMARK   31  A    between atoms: _70  and  _71
REMARK   32  A    between atoms: _74  and  _76
REMARK   33  A    between atoms: _76  and  _77
REMARK   34  A    between atoms: _79  and  _81
REMARK   35  A    between atoms: _81  and  _82
REMARK   36  A    between atoms: _81  and  _84
REMARK   37  A    between atoms: _84  and  _85
REMARK   38  A    between atoms: _90  and  _91
REMARK   39  A    between atoms: _93  and  _95
REMARK   40  A    between atoms: _95  and  _96
REMARK   41  A    between atoms: _95  and  _98
REMARK   42  A    between atoms: _98  and  _99
REMARK   43  A    between atoms: _102  and  _104
REMARK   44  A    between atoms: _104  and  _105
REMARK   45  A    between atoms: _104  and  _107
REMARK   46  A    between atoms: _107  and  _108
REMARK   47  A    between atoms: _114  and  _116
REMARK   48  A    between atoms: _116  and  _117
REMARK   49  A    between atoms: _116  and  _119
REMARK   50  A    between atoms: _119  and  _120
REMARK   51  A    between atoms: _125  and  _127
REMARK   52  A    between atoms: _127  and  _128
REMARK   53  A    between atoms: _127  and  _130
REMARK   54  A    between atoms: _133  and  _135
REMARK   55  A    between atoms: _135  and  _136
REMARK   56  A    between atoms: _138  and  _140
REMARK   57  A    between atoms: _140  and  _141
REMARK   58  A    between atoms: _144  and  _146
REMARK   59  A    between atoms: _146  and  _147
REMARK   60  A    between atoms: _146  and  _149
REMARK   61  A    between atoms: _149  and  _150
REMARK   62  A    between atoms: _150  and  _151
REMARK   63  A    between atoms: _153  and  _155
REMARK   64  A    between atoms: _155  and  _156
REMARK   65  A    between atoms: _155  and  _158
REMARK   66  A    between atoms: _158  and  _159
REMARK   67  A    between atoms: _159  and  _160
REMARK   68  A    between atoms: _163  and  _165
REMARK   69  A    between atoms: _165  and  _166
REMARK   70  A    between atoms: _165  and  _168
REMARK   71  A    between atoms: _168  and  _169
REMARK   72  A    between atoms: _174  and  _176
REMARK   73  A    between atoms: _176  and  _177
REMARK   74  A    between atoms: _176  and  _179
REMARK   75  A    between atoms: _179  and  _180
REMARK   76  A    between atoms: _183  and  _185
REMARK   77  A    between atoms: _185  and  _186
REMARK   78  A    between atoms: _185  and  _188
REMARK   79  A    between atoms: _188  and  _189
REMARK   80  A    between atoms: _195  and  _197
REMARK   81  A    between atoms: _197  and  _198
REMARK   82  A    between atoms: _197  and  _200
REMARK   83  A    between atoms: _200  and  _201
REMARK   84  A    between atoms: _206  and  _208
REMARK   85  A    between atoms: _208  and  _209
REMARK   86  A    between atoms: _208  and  _211
REMARK   87  A    between atoms: _211  and  _212
REMARK   88  A    between atoms: _217  and  _219
REMARK   89  A    between atoms: _219  and  _220
REMARK   90  A    between atoms: _219  and  _222
REMARK   91  A    between atoms: _222  and  _223
REMARK   92  A    between atoms: _225  and  _227
REMARK   93  A    between atoms: _227  and  _228
REMARK   94  A    between atoms: _227  and  _230
REMARK   95  A    between atoms: _230  and  _231
REMARK   96  A    between atoms: _237  and  _239
REMARK   97  A    between atoms: _239  and  _240
REMARK   98  A    between atoms: _243  and  _245
REMARK   99  A    between atoms: _245  and  _246
REMARK  100  A    between atoms: _245  and  _248
REMARK  101  A    between atoms: _248  and  _249
REMARK  102  A    between atoms: _249  and  _250
REMARK  103  A    between atoms: _250  and  _251
REMARK  104  A    between atoms: _260  and  _262
REMARK  105  A    between atoms: _262  and  _263
REMARK  106  A    between atoms: _262  and  _265
REMARK  107  A    between atoms: _265  and  _266
REMARK  108  A    between atoms: _269  and  _271
REMARK  109  A    between atoms: _271  and  _272
REMARK  110  A    between atoms: _271  and  _274
REMARK  111  A    between atoms: _274  and  _275
REMARK  112  A    between atoms: _278  and  _280
REMARK  113  A    between atoms: _280  and  _281
REMARK  114  A    between atoms: _280  and  _283
REMARK  115  A    between atoms: _283  and  _284
REMARK  116  A    between atoms: _287  and  _289
REMARK  117  A    between atoms: _289  and  _290
REMARK  118  A    between atoms: _289  and  _292
REMARK  119  A    between atoms: _295  and  _297
REMARK  120  A    between atoms: _297  and  _298
REMARK  121  A    between atoms: _297  and  _300
REMARK  122  A    between atoms: _303  and  _305
REMARK  123  A    between atoms: _305  and  _306
REMARK  124  A    between atoms: _308  and  _310
REMARK  125  A    between atoms: _310  and  _311
REMARK  126  A    between atoms: _310  and  _313
REMARK  127  A    between atoms: _313  and  _314
REMARK  128  A    between atoms: _318  and  ZN_601
REMARK  129  A    between atoms: _319  and  _321
REMARK  130  A    between atoms: _321  and  _322
REMARK  131  A    between atoms: _321  and  _324
REMARK  132  A    between atoms: _324  and  _325
REMARK  133  A    between atoms: _325  and  _326
REMARK  134  A    between atoms: _329  and  _331
REMARK  135  A    between atoms: _331  and  _332
REMARK  136  A    between atoms: _331  and  _334
REMARK  137  A    between atoms: _334  and  _335
REMARK  138  A    between atoms: _340  and  _341
REMARK  139  A    between atoms: _343  and  _345
REMARK  140  A    between atoms: _345  and  _346
REMARK  141  A    between atoms: _345  and  _348
REMARK  142  A    between atoms: _348  and  _349
REMARK  143  A    between atoms: _353  and  ZN_601
REMARK  144  A    between atoms: _354  and  _356
REMARK  145  A    between atoms: _356  and  _357
REMARK  146  A    between atoms: _356  and  _359
REMARK  147  A    between atoms: _359  and  _360
REMARK  148  A    between atoms: _365  and  _367
REMARK  149  A    between atoms: _367  and  _368
REMARK  150  A    between atoms: _367  and  _370
REMARK  151  A    between atoms: _370  and  _371
REMARK  152  A    between atoms: _381  and  _383
REMARK  153  A    between atoms: _383  and  _384
REMARK  154  A    between atoms: _383  and  _386
REMARK  155  A    between atoms: _386  and  _387
REMARK  156  A    between atoms: _390  and  _392
REMARK  157  A    between atoms: _392  and  _393
REMARK  158  A    between atoms: _392  and  _395
REMARK  159  A    between atoms: _395  and  _396
REMARK  160  A    between atoms: _396  and  _397
REMARK  161  A    between atoms: _397  and  _398
REMARK  162  A    between atoms: _398  and  _399
REMARK  163  A    between atoms: _403  and  _405
REMARK  164  A    between atoms: _405  and  _406
REMARK  165  A    between atoms: _405  and  _408
REMARK  166  A    between atoms: _408  and  _409
REMARK  167  A    between atoms: _409  and  _410
REMARK  168  A    between atoms: _410  and  _411
REMARK  169  A    between atoms: _411  and  ZN_601
REMARK  170  A    between atoms: _413  and  _415
REMARK  171  A    between atoms: _415  and  _416
REMARK  172  A    between atoms: _418  and  _420
REMARK  173  A    between atoms: _420  and  _421
REMARK  174  A    between atoms: _420  and  _423
REMARK  175  A    between atoms: _423  and  _424
REMARK  176  A    between atoms: _427  and  _429
REMARK  177  A    between atoms: _429  and  _430
REMARK  178  A    between atoms: _429  and  _432
REMARK  179  A    between atoms: _435  and  _437
REMARK  180  A    between atoms: _437  and  _438
REMARK  181  A    between atoms: _437  and  _440
REMARK  182  A    between atoms: _440  and  _441
REMARK  183  A    between atoms: _441  and  _442
REMARK  184  A    between atoms: _445  and  _447
REMARK  185  A    between atoms: _447  and  _448
REMARK  186  A    between atoms: _447  and  _450
REMARK  187  A    between atoms: _450  and  _451
REMARK  188  A    between atoms: _456  and  _458
REMARK  189  A    between atoms: _458  and  _459
REMARK  190  A    between atoms: _458  and  _461
REMARK  191  A    between atoms: _461  and  _462
REMARK  192  A    between atoms: _464  and  _466
REMARK  193  A    between atoms: _466  and  _467
REMARK  194  A    between atoms: _466  and  _469
REMARK  195  A    between atoms: _469  and  _470
REMARK  196  A    between atoms: _470  and  _471
REMARK  197  A    between atoms: _473  and  _475
REMARK  198  A    between atoms: _475  and  _476
REMARK  199  A    between atoms: _475  and  _478
REMARK  200  A    between atoms: _478  and  _479
REMARK  201  A    between atoms: _479  and  _480
REMARK  202  A    between atoms: _483  and  _485
REMARK  203  A    between atoms: _485  and  _486
REMARK  204  A    between atoms: _485  and  _488
REMARK  205  A    between atoms: _488  and  _489
REMARK  206  A    between atoms: _494  and  _496
REMARK  207  A    between atoms: _496  and  _497
REMARK  208  A    between atoms: _496  and  _499
REMARK  209  A    between atoms: _499  and  _500
REMARK  210  A    between atoms: _506  and  _508
REMARK  211  A    between atoms: _508  and  _509
REMARK  212  A    between atoms: _508  and  _511
REMARK  213  A    between atoms: _511  and  _512
REMARK  214  A    between atoms: _517  and  _518
REMARK  215  A    between atoms: _520  and  _522
REMARK  216  A    between atoms: _522  and  _523
REMARK  217  A    between atoms: _522  and  _525
REMARK  218  A    between atoms: _525  and  _526
REMARK  219  A    between atoms: _529  and  _531
REMARK  220  A    between atoms: _531  and  _532
REMARK  221  A    between atoms: _531  and  _534
REMARK  222  A    between atoms: _534  and  _535
REMARK  223  A    between atoms: _540  and  _541
REMARK  224  A    between atoms: _543  and  _545
REMARK  225  A    between atoms: _545  and  _546
REMARK  226  A    between atoms: _545  and  _548
REMARK  227  A    between atoms: _548  and  _549
REMARK  228  A    between atoms: _552  and  _554
REMARK  229  A    between atoms: _554  and  _555
REMARK  230  A    between atoms: _554  and  _557
REMARK  231  A    between atoms: _557  and  _558
REMARK  232  A    between atoms: _558  and  _559
REMARK  233  A    between atoms: _559  and  _560
REMARK  234  A    between atoms: _569  and  _571
REMARK  235  A    between atoms: _571  and  _572
REMARK  236  A    between atoms: _571  and  _574
REMARK  237  A    between atoms: _574  and  _575
REMARK  238  A    between atoms: _575  and  _576
REMARK  239  A    between atoms: _578  and  _580
REMARK  240  A    between atoms: _580  and  _581
REMARK  241  A    between atoms: _580  and  _583
REMARK  242  A    between atoms: _583  and  _584
REMARK  243  A    between atoms: _584  and  _585
REMARK  244  A    between atoms: _590  and  _592
REMARK  245  A    between atoms: _592  and  _593
REMARK  246  A    between atoms: _592  and  _595
REMARK  247  A    between atoms: _595  and  _596
REMARK                            x       y       z     vdW  Elec       q    Type
REMARK                         _______ _______ _______ _____ _____    ______ ____
ROOT
ATOM      1  O   HOH     1      15.829   7.487   4.760  0.00  0.00    +0.000 OA
ENDROOT
TORSDOF 0
REMARK  Name = ../refined-set-2016/3ebi/3ebi_pocket.pdb
REMARK  247 active torsions:
REMARK  status: ('A' for Active; 'I' for Inactive)
REMARK    1  A    between atoms: _1  and  _3
REMARK    2  A    between atoms: _3  and  _4
REMARK    3  A    between atoms: _7  and  _9
REMARK    4  A    between atoms: _9  and  _10
REMARK    5  A    between atoms: _9  and  _12
REMARK    6  A    between atoms: _12  and  _13
REMARK    7  A    between atoms: _16  and  _18
REMARK    8  A    between atoms: _18  and  _19
REMARK    9  A    between atoms: _18  and  _21
REMARK   10  A    between atoms: _21  and  _22
REMARK   11  A    between atoms: _25  and  _27
REMARK   12  A    between atoms: _27  and  _28
REMARK   13  A    between atoms: _30  and  _32
REMARK   14  A    between atoms: _32  and  _33
REMARK   15  A    between atoms: _32  and  _35
REMARK   16  A    between atoms: _35  and  _36
REMARK   17  A    between atoms: _36  and  _37
REMARK   18  A    between atoms: _42  and  _44
REMARK   19  A    between atoms: _44  and  _45
REMARK   20  A    between atoms: _44  and  _47
REMARK   21  A    between atoms: _49  and  _51
REMARK   22  A    between atoms: _51  and  _52
REMARK   23  A    between atoms: _51  and  _54
REMARK   24  A    between atoms: _54  and  _55
REMARK   25  A    between atoms: _55  and  _56
REMARK   26  A    between atoms: _59  and  _61
REMARK   27  A    between atoms: _61  and  _62
REMARK   28  A    between atoms: _65  and  _67
REMARK   29  A    between atoms: _67  and  _68
REMARK   30  A    between atoms: _67  and  _70
REMARK   31  A    between atoms: _70  and  _71
REMARK   32  A    between atoms: _74  and  _76
REMARK   33  A    between atoms: _76  and  _77
REMARK   34  A    between atoms: _79  and  _81
REMARK   35  A    between atoms: _81  and  _82
REMARK   36  A    between atoms: _81  and  _84
REMARK   37  A    between atoms: _84  and  _85
REMARK   38  A    between atoms: _90  and  _91
REMARK   39  A    between atoms: _93  and  _95
REMARK   40  A    between atoms: _95  and  _96
REMARK   41  A    between atoms: _95  and  _98
REMARK   42  A    between atoms: _98  and  _99
REMARK   43  A    between atoms: _102  and  _104
REMARK   44  A    between atoms: _104  and  _105
REMARK   45  A    between atoms: _104  and  _107
REMARK   46  A    between atoms: _107  and  _108
REMARK   47  A    between atoms: _114  and  _116
REMARK   48  A    between atoms: _116  and  _117
REMARK   49  A    between atoms: _116  and  _119
REMARK   50  A    between atoms: _119  and  _120
REMARK   51  A    between atoms: _125  and  _127
REMARK   52  A    between atoms: _127  and  _128
REMARK   53  A    between atoms: _127  and  _130
REMARK   54  A    between atoms: _133  and  _135
REMARK   55  A    between atoms: _135  and  _136
REMARK   56  A    between atoms: _138  and  _140
REMARK   57  A    between atoms: _140  and  _141
REMARK   58  A    between atoms: _144  and  _146
REMARK   59  A    between atoms: _146  and  _147
REMARK   60  A    between atoms: _146  and  _149
REMARK   61  A    between atoms: _149  and  _150
REMARK   62  A    between atoms: _150  and  _151
REMARK   63  A    between atoms: _153  and  _155
REMARK   64  A    between atoms: _155  and  _156
REMARK   65  A    between atoms: _155  and  _158
REMARK   66  A    between atoms: _158  and  _159
REMARK   67  A    between atoms: _159  and  _160
REMARK   68  A    between atoms: _163  and  _165
REMARK   69  A    between atoms: _165  and  _166
REMARK   70  A    between atoms: _165  and  _168
REMARK   71  A    between atoms: _168  and  _169
REMARK   72  A    between atoms: _174  and  _176
REMARK   73  A    between atoms: _176  and  _177
REMARK   74  A    between atoms: _176  and  _179
REMARK   75  A    between atoms: _179  and  _180
REMARK   76  A    between atoms: _183  and  _185
REMARK   77  A    between atoms: _185  and  _186
REMARK   78  A    between atoms: _185  and  _188
REMARK   79  A    between atoms: _188  and  _189
REMARK   80  A    between atoms: _195  and  _197
REMARK   81  A    between atoms: _197  and  _198
REMARK   82  A    between atoms: _197  and  _200
REMARK   83  A    between atoms: _200  and  _201
REMARK   84  A    between atoms: _206  and  _208
REMARK   85  A    between atoms: _208  and  _209
REMARK   86  A    between atoms: _208  and  _211
REMARK   87  A    between atoms: _211  and  _212
REMARK   88  A    between atoms: _217  and  _219
REMARK   89  A    between atoms: _219  and  _220
REMARK   90  A    between atoms: _219  and  _222
REMARK   91  A    between atoms: _222  and  _223
REMARK   92  A    between atoms: _225  and  _227
REMARK   93  A    between atoms: _227  and  _228
REMARK   94  A    between atoms: _227  and  _230
REMARK   95  A    between atoms: _230  and  _231
REMARK   96  A    between atoms: _237  and  _239
REMARK   97  A    between atoms: _239  and  _240
REMARK   98  A    between atoms: _243  and  _245
REMARK   99  A    between atoms: _245  and  _246
REMARK  100  A    between atoms: _245  and  _248
REMARK  101  A    between atoms: _248  and  _249
REMARK  102  A    between atoms: _249  and  _250
REMARK  103  A    between atoms: _250  and  _251
REMARK  104  A    between atoms: _260  and  _262
REMARK  105  A    between atoms: _262  and  _263
REMARK  106  A    between atoms: _262  and  _265
REMARK  107  A    between atoms: _265  and  _266
REMARK  108  A    between atoms: _269  and  _271
REMARK  109  A    between atoms: _271  and  _272
REMARK  110  A    between atoms: _271  and  _274
REMARK  111  A    between atoms: _274  and  _275
REMARK  112  A    between atoms: _278  and  _280
REMARK  113  A    between atoms: _280  and  _281
REMARK  114  A    between atoms: _280  and  _283
REMARK  115  A    between atoms: _283  and  _284
REMARK  116  A    between atoms: _287  and  _289
REMARK  117  A    between atoms: _289  and  _290
REMARK  118  A    between atoms: _289  and  _292
REMARK  119  A    between atoms: _295  and  _297
REMARK  120  A    between atoms: _297  and  _298
REMARK  121  A    between atoms: _297  and  _300
REMARK  122  A    between atoms: _303  and  _305
REMARK  123  A    between atoms: _305  and  _306
REMARK  124  A    between atoms: _308  and  _310
REMARK  125  A    between atoms: _310  and  _311
REMARK  126  A    between atoms: _310  and  _313
REMARK  127  A    between atoms: _313  and  _314
REMARK  128  A    between atoms: _318  and  ZN_601
REMARK  129  A    between atoms: _319  and  _321
REMARK  130  A    between atoms: _321  and  _322
REMARK  131  A    between atoms: _321  and  _324
REMARK  132  A    between atoms: _324  and  _325
REMARK  133  A    between atoms: _325  and  _326
REMARK  134  A    between atoms: _329  and  _331
REMARK  135  A    between atoms: _331  and  _332
REMARK  136  A    between atoms: _331  and  _334
REMARK  137  A    between atoms: _334  and  _335
REMARK  138  A    between atoms: _340  and  _341
REMARK  139  A    between atoms: _343  and  _345
REMARK  140  A    between atoms: _345  and  _346
REMARK  141  A    between atoms: _345  and  _348
REMARK  142  A    between atoms: _348  and  _349
REMARK  143  A    between atoms: _353  and  ZN_601
REMARK  144  A    between atoms: _354  and  _356
REMARK  145  A    between atoms: _356  and  _357
REMARK  146  A    between atoms: _356  and  _359
REMARK  147  A    between atoms: _359  and  _360
REMARK  148  A    between atoms: _365  and  _367
REMARK  149  A    between atoms: _367  and  _368
REMARK  150  A    between atoms: _367  and  _370
REMARK  151  A    between atoms: _370  and  _371
REMARK  152  A    between atoms: _381  and  _383
REMARK  153  A    between atoms: _383  and  _384
REMARK  154  A    between atoms: _383  and  _386
REMARK  155  A    between atoms: _386  and  _387
REMARK  156  A    between atoms: _390  and  _392
REMARK  157  A    between atoms: _392  and  _393
REMARK  158  A    between atoms: _392  and  _395
REMARK  159  A    between atoms: _395  and  _396
REMARK  160  A    between atoms: _396  and  _397
REMARK  161  A    between atoms: _397  and  _398
REMARK  162  A    between atoms: _398  and  _399
REMARK  163  A    between atoms: _403  and  _405
REMARK  164  A    between atoms: _405  and  _406
REMARK  165  A    between atoms: _405  and  _408
REMARK  166  A    between atoms: _408  and  _409
REMARK  167  A    between atoms: _409  and  _410
REMARK  168  A    between atoms: _410  and  _411
REMARK  169  A    between atoms: _411  and  ZN_601
REMARK  170  A    between atoms: _413  and  _415
REMARK  171  A    between atoms: _415  and  _416
REMARK  172  A    between atoms: _418  and  _420
REMARK  173  A    between atoms: _420  and  _421
REMARK  174  A    between atoms: _420  and  _423
REMARK  175  A    between atoms: _423  and  _424
REMARK  176  A    between atoms: _427  and  _429
REMARK  177  A    between atoms: _429  and  _430
REMARK  178  A    between atoms: _429  and  _432
REMARK  179  A    between atoms: _435  and  _437
REMARK  180  A    between atoms: _437  and  _438
REMARK  181  A    between atoms: _437  and  _440
REMARK  182  A    between atoms: _440  and  _441
REMARK  183  A    between atoms: _441  and  _442
REMARK  184  A    between atoms: _445  and  _447
REMARK  185  A    between atoms: _447  and  _448
REMARK  186  A    between atoms: _447  and  _450
REMARK  187  A    between atoms: _450  and  _451
REMARK  188  A    between atoms: _456  and  _458
REMARK  189  A    between atoms: _458  and  _459
REMARK  190  A    between atoms: _458  and  _461
REMARK  191  A    between atoms: _461  and  _462
REMARK  192  A    between atoms: _464  and  _466
REMARK  193  A    between atoms: _466  and  _467
REMARK  194  A    between atoms: _466  and  _469
REMARK  195  A    between atoms: _469  and  _470
REMARK  196  A    between atoms: _470  and  _471
REMARK  197  A    between atoms: _473  and  _475
REMARK  198  A    between atoms: _475  and  _476
REMARK  199  A    between atoms: _475  and  _478
REMARK  200  A    between atoms: _478  and  _479
REMARK  201  A    between atoms: _479  and  _480
REMARK  202  A    between atoms: _483  and  _485
REMARK  203  A    between atoms: _485  and  _486
REMARK  204  A    between atoms: _485  and  _488
REMARK  205  A    between atoms: _488  and  _489
REMARK  206  A    between atoms: _494  and  _496
REMARK  207  A    between atoms: _496  and  _497
REMARK  208  A    between atoms: _496  and  _499
REMARK  209  A    between atoms: _499  and  _500
REMARK  210  A    between atoms: _506  and  _508
REMARK  211  A    between atoms: _508  and  _509
REMARK  212  A    between atoms: _508  and  _511
REMARK  213  A    between atoms: _511  and  _512
REMARK  214  A    between atoms: _517  and  _518
REMARK  215  A    between atoms: _520  and  _522
REMARK  216  A    between atoms: _522  and  _523
REMARK  217  A    between atoms: _522  and  _525
REMARK  218  A    between atoms: _525  and  _526
REMARK  219  A    between atoms: _529  and  _531
REMARK  220  A    between atoms: _531  and  _532
REMARK  221  A    between atoms: _531  and  _534
REMARK  222  A    between atoms: _534  and  _535
REMARK  223  A    between atoms: _540  and  _541
REMARK  224  A    between atoms: _543  and  _545
REMARK  225  A    between atoms: _545  and  _546
REMARK  226  A    between atoms: _545  and  _548
REMARK  227  A    between atoms: _548  and  _549
REMARK  228  A    between atoms: _552  and  _554
REMARK  229  A    between atoms: _554  and  _555
REMARK  230  A    between atoms: _554  and  _557
REMARK  231  A    between atoms: _557  and  _558
REMARK  232  A    between atoms: _558  and  _559
REMARK  233  A    between atoms: _559  and  _560
REMARK  234  A    between atoms: _569  and  _571
REMARK  235  A    between atoms: _571  and  _572
REMARK  236  A    between atoms: _571  and  _574
REMARK  237  A    between atoms: _574  and  _575
REMARK  238  A    between atoms: _575  and  _576
REMARK  239  A    between atoms: _578  and  _580
REMARK  240  A    between atoms: _580  and  _581
REMARK  241  A    between atoms: _580  and  _583
REMARK  242  A    between atoms: _583  and  _584
REMARK  243  A    between atoms: _584  and  _585
REMARK  244  A    between atoms: _590  and  _592
REMARK  245  A    between atoms: _592  and  _593
REMARK  246  A    between atoms: _592  and  _595
REMARK  247  A    between atoms: _595  and  _596
REMARK                            x       y       z     vdW  Elec       q    Type
REMARK                         _______ _______ _______ _____ _____    ______ ____
ROOT
ATOM      1  O   HOH     1      23.336   5.878   4.196  0.00  0.00    +0.000 OA
ENDROOT
TORSDOF 0
REMARK  Name = ../refined-set-2016/3ebi/3ebi_pocket.pdb
REMARK  247 active torsions:
REMARK  status: ('A' for Active; 'I' for Inactive)
REMARK    1  A    between atoms: _1  and  _3
REMARK    2  A    between atoms: _3  and  _4
REMARK    3  A    between atoms: _7  and  _9
REMARK    4  A    between atoms: _9  and  _10
REMARK    5  A    between atoms: _9  and  _12
REMARK    6  A    between atoms: _12  and  _13
REMARK    7  A    between atoms: _16  and  _18
REMARK    8  A    between atoms: _18  and  _19
REMARK    9  A    between atoms: _18  and  _21
REMARK   10  A    between atoms: _21  and  _22
REMARK   11  A    between atoms: _25  and  _27
REMARK   12  A    between atoms: _27  and  _28
REMARK   13  A    between atoms: _30  and  _32
REMARK   14  A    between atoms: _32  and  _33
REMARK   15  A    between atoms: _32  and  _35
REMARK   16  A    between atoms: _35  and  _36
REMARK   17  A    between atoms: _36  and  _37
REMARK   18  A    between atoms: _42  and  _44
REMARK   19  A    between atoms: _44  and  _45
REMARK   20  A    between atoms: _44  and  _47
REMARK   21  A    between atoms: _49  and  _51
REMARK   22  A    between atoms: _51  and  _52
REMARK   23  A    between atoms: _51  and  _54
REMARK   24  A    between atoms: _54  and  _55
REMARK   25  A    between atoms: _55  and  _56
REMARK   26  A    between atoms: _59  and  _61
REMARK   27  A    between atoms: _61  and  _62
REMARK   28  A    between atoms: _65  and  _67
REMARK   29  A    between atoms: _67  and  _68
REMARK   30  A    between atoms: _67  and  _70
REMARK   31  A    between atoms: _70  and  _71
REMARK   32  A    between atoms: _74  and  _76
REMARK   33  A    between atoms: _76  and  _77
REMARK   34  A    between atoms: _79  and  _81
REMARK   35  A    between atoms: _81  and  _82
REMARK   36  A    between atoms: _81  and  _84
REMARK   37  A    between atoms: _84  and  _85
REMARK   38  A    between atoms: _90  and  _91
REMARK   39  A    between atoms: _93  and  _95
REMARK   40  A    between atoms: _95  and  _96
REMARK   41  A    between atoms: _95  and  _98
REMARK   42  A    between atoms: _98  and  _99
REMARK   43  A    between atoms: _102  and  _104
REMARK   44  A    between atoms: _104  and  _105
REMARK   45  A    between atoms: _104  and  _107
REMARK   46  A    between atoms: _107  and  _108
REMARK   47  A    between atoms: _114  and  _116
REMARK   48  A    between atoms: _116  and  _117
REMARK   49  A    between atoms: _116  and  _119
REMARK   50  A    between atoms: _119  and  _120
REMARK   51  A    between atoms: _125  and  _127
REMARK   52  A    between atoms: _127  and  _128
REMARK   53  A    between atoms: _127  and  _130
REMARK   54  A    between atoms: _133  and  _135
REMARK   55  A    between atoms: _135  and  _136
REMARK   56  A    between atoms: _138  and  _140
REMARK   57  A    between atoms: _140  and  _141
REMARK   58  A    between atoms: _144  and  _146
REMARK   59  A    between atoms: _146  and  _147
REMARK   60  A    between atoms: _146  and  _149
REMARK   61  A    between atoms: _149  and  _150
REMARK   62  A    between atoms: _150  and  _151
REMARK   63  A    between atoms: _153  and  _155
REMARK   64  A    between atoms: _155  and  _156
REMARK   65  A    between atoms: _155  and  _158
REMARK   66  A    between atoms: _158  and  _159
REMARK   67  A    between atoms: _159  and  _160
REMARK   68  A    between atoms: _163  and  _165
REMARK   69  A    between atoms: _165  and  _166
REMARK   70  A    between atoms: _165  and  _168
REMARK   71  A    between atoms: _168  and  _169
REMARK   72  A    between atoms: _174  and  _176
REMARK   73  A    between atoms: _176  and  _177
REMARK   74  A    between atoms: _176  and  _179
REMARK   75  A    between atoms: _179  and  _180
REMARK   76  A    between atoms: _183  and  _185
REMARK   77  A    between atoms: _185  and  _186
REMARK   78  A    between atoms: _185  and  _188
REMARK   79  A    between atoms: _188  and  _189
REMARK   80  A    between atoms: _195  and  _197
REMARK   81  A    between atoms: _197  and  _198
REMARK   82  A    between atoms: _197  and  _200
REMARK   83  A    between atoms: _200  and  _201
REMARK   84  A    between atoms: _206  and  _208
REMARK   85  A    between atoms: _208  and  _209
REMARK   86  A    between atoms: _208  and  _211
REMARK   87  A    between atoms: _211  and  _212
REMARK   88  A    between atoms: _217  and  _219
REMARK   89  A    between atoms: _219  and  _220
REMARK   90  A    between atoms: _219  and  _222
REMARK   91  A    between atoms: _222  and  _223
REMARK   92  A    between atoms: _225  and  _227
REMARK   93  A    between atoms: _227  and  _228
REMARK   94  A    between atoms: _227  and  _230
REMARK   95  A    between atoms: _230  and  _231
REMARK   96  A    between atoms: _237  and  _239
REMARK   97  A    between atoms: _239  and  _240
REMARK   98  A    between atoms: _243  and  _245
REMARK   99  A    between atoms: _245  and  _246
REMARK  100  A    between atoms: _245  and  _248
REMARK  101  A    between atoms: _248  and  _249
REMARK  102  A    between atoms: _249  and  _250
REMARK  103  A    between atoms: _250  and  _251
REMARK  104  A    between atoms: _260  and  _262
REMARK  105  A    between atoms: _262  and  _263
REMARK  106  A    between atoms: _262  and  _265
REMARK  107  A    between atoms: _265  and  _266
REMARK  108  A    between atoms: _269  and  _271
REMARK  109  A    between atoms: _271  and  _272
REMARK  110  A    between atoms: _271  and  _274
REMARK  111  A    between atoms: _274  and  _275
REMARK  112  A    between atoms: _278  and  _280
REMARK  113  A    between atoms: _280  and  _281
REMARK  114  A    between atoms: _280  and  _283
REMARK  115  A    between atoms: _283  and  _284
REMARK  116  A    between atoms: _287  and  _289
REMARK  117  A    between atoms: _289  and  _290
REMARK  118  A    between atoms: _289  and  _292
REMARK  119  A    between atoms: _295  and  _297
REMARK  120  A    between atoms: _297  and  _298
REMARK  121  A    between atoms: _297  and  _300
REMARK  122  A    between atoms: _303  and  _305
REMARK  123  A    between atoms: _305  and  _306
REMARK  124  A    between atoms: _308  and  _310
REMARK  125  A    between atoms: _310  and  _311
REMARK  126  A    between atoms: _310  and  _313
REMARK  127  A    between atoms: _313  and  _314
REMARK  128  A    between atoms: _318  and  ZN_601
REMARK  129  A    between atoms: _319  and  _321
REMARK  130  A    between atoms: _321  and  _322
REMARK  131  A    between atoms: _321  and  _324
REMARK  132  A    between atoms: _324  and  _325
REMARK  133  A    between atoms: _325  and  _326
REMARK  134  A    between atoms: _329  and  _331
REMARK  135  A    between atoms: _331  and  _332
REMARK  136  A    between atoms: _331  and  _334
REMARK  137  A    between atoms: _334  and  _335
REMARK  138  A    between atoms: _340  and  _341
REMARK  139  A    between atoms: _343  and  _345
REMARK  140  A    between atoms: _345  and  _346
REMARK  141  A    between atoms: _345  and  _348
REMARK  142  A    between atoms: _348  and  _349
REMARK  143  A    between atoms: _353  and  ZN_601
REMARK  144  A    between atoms: _354  and  _356
REMARK  145  A    between atoms: _356  and  _357
REMARK  146  A    between atoms: _356  and  _359
REMARK  147  A    between atoms: _359  and  _360
REMARK  148  A    between atoms: _365  and  _367
REMARK  149  A    between atoms: _367  and  _368
REMARK  150  A    between atoms: _367  and  _370
REMARK  151  A    between atoms: _370  and  _371
REMARK  152  A    between atoms: _381  and  _383
REMARK  153  A    between atoms: _383  and  _384
REMARK  154  A    between atoms: _383  and  _386
REMARK  155  A    between atoms: _386  and  _387
REMARK  156  A    between atoms: _390  and  _392
REMARK  157  A    between atoms: _392  and  _393
REMARK  158  A    between atoms: _392  and  _395
REMARK  159  A    between atoms: _395  and  _396
REMARK  160  A    between atoms: _396  and  _397
REMARK  161  A    between atoms: _397  and  _398
REMARK  162  A    between atoms: _398  and  _399
REMARK  163  A    between atoms: _403  and  _405
REMARK  164  A    between atoms: _405  and  _406
REMARK  165  A    between atoms: _405  and  _408
REMARK  166  A    between atoms: _408  and  _409
REMARK  167  A    between atoms: _409  and  _410
REMARK  168  A    between atoms: _410  and  _411
REMARK  169  A    between atoms: _411  and  ZN_601
REMARK  170  A    between atoms: _413  and  _415
REMARK  171  A    between atoms: _415  and  _416
REMARK  172  A    between atoms: _418  and  _420
REMARK  173  A    between atoms: _420  and  _421
REMARK  174  A    between atoms: _420  and  _423
REMARK  175  A    between atoms: _423  and  _424
REMARK  176  A    between atoms: _427  and  _429
REMARK  177  A    between atoms: _429  and  _430
REMARK  178  A    between atoms: _429  and  _432
REMARK  179  A    between atoms: _435  and  _437
REMARK  180  A    between atoms: _437  and  _438
REMARK  181  A    between atoms: _437  and  _440
REMARK  182  A    between atoms: _440  and  _441
REMARK  183  A    between atoms: _441  and  _442
REMARK  184  A    between atoms: _445  and  _447
REMARK  185  A    between atoms: _447  and  _448
REMARK  186  A    between atoms: _447  and  _450
REMARK  187  A    between atoms: _450  and  _451
REMARK  188  A    between atoms: _456  and  _458
REMARK  189  A    between atoms: _458  and  _459
REMARK  190  A    between atoms: _458  and  _461
REMARK  191  A    between atoms: _461  and  _462
REMARK  192  A    between atoms: _464  and  _466
REMARK  193  A    between atoms: _466  and  _467
REMARK  194  A    between atoms: _466  and  _469
REMARK  195  A    between atoms: _469  and  _470
REMARK  196  A    between atoms: _470  and  _471
REMARK  197  A    between atoms: _473  and  _475
REMARK  198  A    between atoms: _475  and  _476
REMARK  199  A    between atoms: _475  and  _478
REMARK  200  A    between atoms: _478  and  _479
REMARK  201  A    between atoms: _479  and  _480
REMARK  202  A    between atoms: _483  and  _485
REMARK  203  A    between atoms: _485  and  _486
REMARK  204  A    between atoms: _485  and  _488
REMARK  205  A    between atoms: _488  and  _489
REMARK  206  A    between atoms: _494  and  _496
REMARK  207  A    between atoms: _496  and  _497
REMARK  208  A    between atoms: _496  and  _499
REMARK  209  A    between atoms: _499  and  _500
REMARK  210  A    between atoms: _506  and  _508
REMARK  211  A    between atoms: _508  and  _509
REMARK  212  A    between atoms: _508  and  _511
REMARK  213  A    between atoms: _511  and  _512
REMARK  214  A    between atoms: _517  and  _518
REMARK  215  A    between atoms: _520  and  _522
REMARK  216  A    between atoms: _522  and  _523
REMARK  217  A    between atoms: _522  and  _525
REMARK  218  A    between atoms: _525  and  _526
REMARK  219  A    between atoms: _529  and  _531
REMARK  220  A    between atoms: _531  and  _532
REMARK  221  A    between atoms: _531  and  _534
REMARK  222  A    between atoms: _534  and  _535
REMARK  223  A    between atoms: _540  and  _541
REMARK  224  A    between atoms: _543  and  _545
REMARK  225  A    between atoms: _545  and  _546
REMARK  226  A    between atoms: _545  and  _548
REMARK  227  A    between atoms: _548  and  _549
REMARK  228  A    between atoms: _552  and  _554
REMARK  229  A    between atoms: _554  and  _555
REMARK  230  A    between atoms: _554  and  _557
REMARK  231  A    between atoms: _557  and  _558
REMARK  232  A    between atoms: _558  and  _559
REMARK  233  A    between atoms: _559  and  _560
REMARK  234  A    between atoms: _569  and  _571
REMARK  235  A    between atoms: _571  and  _572
REMARK  236  A    between atoms: _571  and  _574
REMARK  237  A    between atoms: _574  and  _575
REMARK  238  A    between atoms: _575  and  _576
REMARK  239  A    between atoms: _578  and  _580
REMARK  240  A    between atoms: _580  and  _581
REMARK  241  A    between atoms: _580  and  _583
REMARK  242  A    between atoms: _583  and  _584
REMARK  243  A    between atoms: _584  and  _585
REMARK  244  A    between atoms: _590  and  _592
REMARK  245  A    between atoms: _592  and  _593
REMARK  246  A    between atoms: _592  and  _595
REMARK  247  A    between atoms: _595  and  _596
REMARK                            x       y       z     vdW  Elec       q    Type
REMARK                         _______ _______ _______ _____ _____    ______ ____
ROOT
ATOM      1  O   HOH     1      22.248   5.700   6.602  0.00  0.00    +0.000 OA
ENDROOT
TORSDOF 0
REMARK  Name = ../refined-set-2016/3ebi/3ebi_pocket.pdb
REMARK  247 active torsions:
REMARK  status: ('A' for Active; 'I' for Inactive)
REMARK    1  A    between atoms: _1  and  _3
REMARK    2  A    between atoms: _3  and  _4
REMARK    3  A    between atoms: _7  and  _9
REMARK    4  A    between atoms: _9  and  _10
REMARK    5  A    between atoms: _9  and  _12
REMARK    6  A    between atoms: _12  and  _13
REMARK    7  A    between atoms: _16  and  _18
REMARK    8  A    between atoms: _18  and  _19
REMARK    9  A    between atoms: _18  and  _21
REMARK   10  A    between atoms: _21  and  _22
REMARK   11  A    between atoms: _25  and  _27
REMARK   12  A    between atoms: _27  and  _28
REMARK   13  A    between atoms: _30  and  _32
REMARK   14  A    between atoms: _32  and  _33
REMARK   15  A    between atoms: _32  and  _35
REMARK   16  A    between atoms: _35  and  _36
REMARK   17  A    between atoms: _36  and  _37
REMARK   18  A    between atoms: _42  and  _44
REMARK   19  A    between atoms: _44  and  _45
REMARK   20  A    between atoms: _44  and  _47
REMARK   21  A    between atoms: _49  and  _51
REMARK   22  A    between atoms: _51  and  _52
REMARK   23  A    between atoms: _51  and  _54
REMARK   24  A    between atoms: _54  and  _55
REMARK   25  A    between atoms: _55  and  _56
REMARK   26  A    between atoms: _59  and  _61
REMARK   27  A    between atoms: _61  and  _62
REMARK   28  A    between atoms: _65  and  _67
REMARK   29  A    between atoms: _67  and  _68
REMARK   30  A    between atoms: _67  and  _70
REMARK   31  A    between atoms: _70  and  _71
REMARK   32  A    between atoms: _74  and  _76
REMARK   33  A    between atoms: _76  and  _77
REMARK   34  A    between atoms: _79  and  _81
REMARK   35  A    between atoms: _81  and  _82
REMARK   36  A    between atoms: _81  and  _84
REMARK   37  A    between atoms: _84  and  _85
REMARK   38  A    between atoms: _90  and  _91
REMARK   39  A    between atoms: _93  and  _95
REMARK   40  A    between atoms: _95  and  _96
REMARK   41  A    between atoms: _95  and  _98
REMARK   42  A    between atoms: _98  and  _99
REMARK   43  A    between atoms: _102  and  _104
REMARK   44  A    between atoms: _104  and  _105
REMARK   45  A    between atoms: _104  and  _107
REMARK   46  A    between atoms: _107  and  _108
REMARK   47  A    between atoms: _114  and  _116
REMARK   48  A    between atoms: _116  and  _117
REMARK   49  A    between atoms: _116  and  _119
REMARK   50  A    between atoms: _119  and  _120
REMARK   51  A    between atoms: _125  and  _127
REMARK   52  A    between atoms: _127  and  _128
REMARK   53  A    between atoms: _127  and  _130
REMARK   54  A    between atoms: _133  and  _135
REMARK   55  A    between atoms: _135  and  _136
REMARK   56  A    between atoms: _138  and  _140
REMARK   57  A    between atoms: _140  and  _141
REMARK   58  A    between atoms: _144  and  _146
REMARK   59  A    between atoms: _146  and  _147
REMARK   60  A    between atoms: _146  and  _149
REMARK   61  A    between atoms: _149  and  _150
REMARK   62  A    between atoms: _150  and  _151
REMARK   63  A    between atoms: _153  and  _155
REMARK   64  A    between atoms: _155  and  _156
REMARK   65  A    between atoms: _155  and  _158
REMARK   66  A    between atoms: _158  and  _159
REMARK   67  A    between atoms: _159  and  _160
REMARK   68  A    between atoms: _163  and  _165
REMARK   69  A    between atoms: _165  and  _166
REMARK   70  A    between atoms: _165  and  _168
REMARK   71  A    between atoms: _168  and  _169
REMARK   72  A    between atoms: _174  and  _176
REMARK   73  A    between atoms: _176  and  _177
REMARK   74  A    between atoms: _176  and  _179
REMARK   75  A    between atoms: _179  and  _180
REMARK   76  A    between atoms: _183  and  _185
REMARK   77  A    between atoms: _185  and  _186
REMARK   78  A    between atoms: _185  and  _188
REMARK   79  A    between atoms: _188  and  _189
REMARK   80  A    between atoms: _195  and  _197
REMARK   81  A    between atoms: _197  and  _198
REMARK   82  A    between atoms: _197  and  _200
REMARK   83  A    between atoms: _200  and  _201
REMARK   84  A    between atoms: _206  and  _208
REMARK   85  A    between atoms: _208  and  _209
REMARK   86  A    between atoms: _208  and  _211
REMARK   87  A    between atoms: _211  and  _212
REMARK   88  A    between atoms: _217  and  _219
REMARK   89  A    between atoms: _219  and  _220
REMARK   90  A    between atoms: _219  and  _222
REMARK   91  A    between atoms: _222  and  _223
REMARK   92  A    between atoms: _225  and  _227
REMARK   93  A    between atoms: _227  and  _228
REMARK   94  A    between atoms: _227  and  _230
REMARK   95  A    between atoms: _230  and  _231
REMARK   96  A    between atoms: _237  and  _239
REMARK   97  A    between atoms: _239  and  _240
REMARK   98  A    between atoms: _243  and  _245
REMARK   99  A    between atoms: _245  and  _246
REMARK  100  A    between atoms: _245  and  _248
REMARK  101  A    between atoms: _248  and  _249
REMARK  102  A    between atoms: _249  and  _250
REMARK  103  A    between atoms: _250  and  _251
REMARK  104  A    between atoms: _260  and  _262
REMARK  105  A    between atoms: _262  and  _263
REMARK  106  A    between atoms: _262  and  _265
REMARK  107  A    between atoms: _265  and  _266
REMARK  108  A    between atoms: _269  and  _271
REMARK  109  A    between atoms: _271  and  _272
REMARK  110  A    between atoms: _271  and  _274
REMARK  111  A    between atoms: _274  and  _275
REMARK  112  A    between atoms: _278  and  _280
REMARK  113  A    between atoms: _280  and  _281
REMARK  114  A    between atoms: _280  and  _283
REMARK  115  A    between atoms: _283  and  _284
REMARK  116  A    between atoms: _287  and  _289
REMARK  117  A    between atoms: _289  and  _290
REMARK  118  A    between atoms: _289  and  _292
REMARK  119  A    between atoms: _295  and  _297
REMARK  120  A    between atoms: _297  and  _298
REMARK  121  A    between atoms: _297  and  _300
REMARK  122  A    between atoms: _303  and  _305
REMARK  123  A    between atoms: _305  and  _306
REMARK  124  A    between atoms: _308  and  _310
REMARK  125  A    between atoms: _310  and  _311
REMARK  126  A    between atoms: _310  and  _313
REMARK  127  A    between atoms: _313  and  _314
REMARK  128  A    between atoms: _318  and  ZN_601
REMARK  129  A    between atoms: _319  and  _321
REMARK  130  A    between atoms: _321  and  _322
REMARK  131  A    between atoms: _321  and  _324
REMARK  132  A    between atoms: _324  and  _325
REMARK  133  A    between atoms: _325  and  _326
REMARK  134  A    between atoms: _329  and  _331
REMARK  135  A    between atoms: _331  and  _332
REMARK  136  A    between atoms: _331  and  _334
REMARK  137  A    between atoms: _334  and  _335
REMARK  138  A    between atoms: _340  and  _341
REMARK  139  A    between atoms: _343  and  _345
REMARK  140  A    between atoms: _345  and  _346
REMARK  141  A    between atoms: _345  and  _348
REMARK  142  A    between atoms: _348  and  _349
REMARK  143  A    between atoms: _353  and  ZN_601
REMARK  144  A    between atoms: _354  and  _356
REMARK  145  A    between atoms: _356  and  _357
REMARK  146  A    between atoms: _356  and  _359
REMARK  147  A    between atoms: _359  and  _360
REMARK  148  A    between atoms: _365  and  _367
REMARK  149  A    between atoms: _367  and  _368
REMARK  150  A    between atoms: _367  and  _370
REMARK  151  A    between atoms: _370  and  _371
REMARK  152  A    between atoms: _381  and  _383
REMARK  153  A    between atoms: _383  and  _384
REMARK  154  A    between atoms: _383  and  _386
REMARK  155  A    between atoms: _386  and  _387
REMARK  156  A    between atoms: _390  and  _392
REMARK  157  A    between atoms: _392  and  _393
REMARK  158  A    between atoms: _392  and  _395
REMARK  159  A    between atoms: _395  and  _396
REMARK  160  A    between atoms: _396  and  _397
REMARK  161  A    between atoms: _397  and  _398
REMARK  162  A    between atoms: _398  and  _399
REMARK  163  A    between atoms: _403  and  _405
REMARK  164  A    between atoms: _405  and  _406
REMARK  165  A    between atoms: _405  and  _408
REMARK  166  A    between atoms: _408  and  _409
REMARK  167  A    between atoms: _409  and  _410
REMARK  168  A    between atoms: _410  and  _411
REMARK  169  A    between atoms: _411  and  ZN_601
REMARK  170  A    between atoms: _413  and  _415
REMARK  171  A    between atoms: _415  and  _416
REMARK  172  A    between atoms: _418  and  _420
REMARK  173  A    between atoms: _420  and  _421
REMARK  174  A    between atoms: _420  and  _423
REMARK  175  A    between atoms: _423  and  _424
REMARK  176  A    between atoms: _427  and  _429
REMARK  177  A    between atoms: _429  and  _430
REMARK  178  A    between atoms: _429  and  _432
REMARK  179  A    between atoms: _435  and  _437
REMARK  180  A    between atoms: _437  and  _438
REMARK  181  A    between atoms: _437  and  _440
REMARK  182  A    between atoms: _440  and  _441
REMARK  183  A    between atoms: _441  and  _442
REMARK  184  A    between atoms: _445  and  _447
REMARK  185  A    between atoms: _447  and  _448
REMARK  186  A    between atoms: _447  and  _450
REMARK  187  A    between atoms: _450  and  _451
REMARK  188  A    between atoms: _456  and  _458
REMARK  189  A    between atoms: _458  and  _459
REMARK  190  A    between atoms: _458  and  _461
REMARK  191  A    between atoms: _461  and  _462
REMARK  192  A    between atoms: _464  and  _466
REMARK  193  A    between atoms: _466  and  _467
REMARK  194  A    between atoms: _466  and  _469
REMARK  195  A    between atoms: _469  and  _470
REMARK  196  A    between atoms: _470  and  _471
REMARK  197  A    between atoms: _473  and  _475
REMARK  198  A    between atoms: _475  and  _476
REMARK  199  A    between atoms: _475  and  _478
REMARK  200  A    between atoms: _478  and  _479
REMARK  201  A    between atoms: _479  and  _480
REMARK  202  A    between atoms: _483  and  _485
REMARK  203  A    between atoms: _485  and  _486
REMARK  204  A    between atoms: _485  and  _488
REMARK  205  A    between atoms: _488  and  _489
REMARK  206  A    between atoms: _494  and  _496
REMARK  207  A    between atoms: _496  and  _497
REMARK  208  A    between atoms: _496  and  _499
REMARK  209  A    between atoms: _499  and  _500
REMARK  210  A    between atoms: _506  and  _508
REMARK  211  A    between atoms: _508  and  _509
REMARK  212  A    between atoms: _508  and  _511
REMARK  213  A    between atoms: _511  and  _512
REMARK  214  A    between atoms: _517  and  _518
REMARK  215  A    between atoms: _520  and  _522
REMARK  216  A    between atoms: _522  and  _523
REMARK  217  A    between atoms: _522  and  _525
REMARK  218  A    between atoms: _525  and  _526
REMARK  219  A    between atoms: _529  and  _531
REMARK  220  A    between atoms: _531  and  _532
REMARK  221  A    between atoms: _531  and  _534
REMARK  222  A    between atoms: _534  and  _535
REMARK  223  A    between atoms: _540  and  _541
REMARK  224  A    between atoms: _543  and  _545
REMARK  225  A    between atoms: _545  and  _546
REMARK  226  A    between atoms: _545  and  _548
REMARK  227  A    between atoms: _548  and  _549
REMARK  228  A    between atoms: _552  and  _554
REMARK  229  A    between atoms: _554  and  _555
REMARK  230  A    between atoms: _554  and  _557
REMARK  231  A    between atoms: _557  and  _558
REMARK  232  A    between atoms: _558  and  _559
REMARK  233  A    between atoms: _559  and  _560
REMARK  234  A    between atoms: _569  and  _571
REMARK  235  A    between atoms: _571  and  _572
REMARK  236  A    between atoms: _571  and  _574
REMARK  237  A    between atoms: _574  and  _575
REMARK  238  A    between atoms: _575  and  _576
REMARK  239  A    between atoms: _578  and  _580
REMARK  240  A    between atoms: _580  and  _581
REMARK  241  A    between atoms: _580  and  _583
REMARK  242  A    between atoms: _583  and  _584
REMARK  243  A    between atoms: _584  and  _585
REMARK  244  A    between atoms: _590  and  _592
REMARK  245  A    between atoms: _592  and  _593
REMARK  246  A    between atoms: _592  and  _595
REMARK  247  A    between atoms: _595  and  _596
REMARK                            x       y       z     vdW  Elec       q    Type
REMARK                         _______ _______ _______ _____ _____    ______ ____
ROOT
ATOM      1  O   HOH     1      16.904  14.495  18.140  0.00  0.00    +0.000 OA
ENDROOT
TORSDOF 0
REMARK  Name = ../refined-set-2016/3ebi/3ebi_pocket.pdb
REMARK  247 active torsions:
REMARK  status: ('A' for Active; 'I' for Inactive)
REMARK    1  A    between atoms: _1  and  _3
REMARK    2  A    between atoms: _3  and  _4
REMARK    3  A    between atoms: _7  and  _9
REMARK    4  A    between atoms: _9  and  _10
REMARK    5  A    between atoms: _9  and  _12
REMARK    6  A    between atoms: _12  and  _13
REMARK    7  A    between atoms: _16  and  _18
REMARK    8  A    between atoms: _18  and  _19
REMARK    9  A    between atoms: _18  and  _21
REMARK   10  A    between atoms: _21  and  _22
REMARK   11  A    between atoms: _25  and  _27
REMARK   12  A    between atoms: _27  and  _28
REMARK   13  A    between atoms: _30  and  _32
REMARK   14  A    between atoms: _32  and  _33
REMARK   15  A    between atoms: _32  and  _35
REMARK   16  A    between atoms: _35  and  _36
REMARK   17  A    between atoms: _36  and  _37
REMARK   18  A    between atoms: _42  and  _44
REMARK   19  A    between atoms: _44  and  _45
REMARK   20  A    between atoms: _44  and  _47
REMARK   21  A    between atoms: _49  and  _51
REMARK   22  A    between atoms: _51  and  _52
REMARK   23  A    between atoms: _51  and  _54
REMARK   24  A    between atoms: _54  and  _55
REMARK   25  A    between atoms: _55  and  _56
REMARK   26  A    between atoms: _59  and  _61
REMARK   27  A    between atoms: _61  and  _62
REMARK   28  A    between atoms: _65  and  _67
REMARK   29  A    between atoms: _67  and  _68
REMARK   30  A    between atoms: _67  and  _70
REMARK   31  A    between atoms: _70  and  _71
REMARK   32  A    between atoms: _74  and  _76
REMARK   33  A    between atoms: _76  and  _77
REMARK   34  A    between atoms: _79  and  _81
REMARK   35  A    between atoms: _81  and  _82
REMARK   36  A    between atoms: _81  and  _84
REMARK   37  A    between atoms: _84  and  _85
REMARK   38  A    between atoms: _90  and  _91
REMARK   39  A    between atoms: _93  and  _95
REMARK   40  A    between atoms: _95  and  _96
REMARK   41  A    between atoms: _95  and  _98
REMARK   42  A    between atoms: _98  and  _99
REMARK   43  A    between atoms: _102  and  _104
REMARK   44  A    between atoms: _104  and  _105
REMARK   45  A    between atoms: _104  and  _107
REMARK   46  A    between atoms: _107  and  _108
REMARK   47  A    between atoms: _114  and  _116
REMARK   48  A    between atoms: _116  and  _117
REMARK   49  A    between atoms: _116  and  _119
REMARK   50  A    between atoms: _119  and  _120
REMARK   51  A    between atoms: _125  and  _127
REMARK   52  A    between atoms: _127  and  _128
REMARK   53  A    between atoms: _127  and  _130
REMARK   54  A    between atoms: _133  and  _135
REMARK   55  A    between atoms: _135  and  _136
REMARK   56  A    between atoms: _138  and  _140
REMARK   57  A    between atoms: _140  and  _141
REMARK   58  A    between atoms: _144  and  _146
REMARK   59  A    between atoms: _146  and  _147
REMARK   60  A    between atoms: _146  and  _149
REMARK   61  A    between atoms: _149  and  _150
REMARK   62  A    between atoms: _150  and  _151
REMARK   63  A    between atoms: _153  and  _155
REMARK   64  A    between atoms: _155  and  _156
REMARK   65  A    between atoms: _155  and  _158
REMARK   66  A    between atoms: _158  and  _159
REMARK   67  A    between atoms: _159  and  _160
REMARK   68  A    between atoms: _163  and  _165
REMARK   69  A    between atoms: _165  and  _166
REMARK   70  A    between atoms: _165  and  _168
REMARK   71  A    between atoms: _168  and  _169
REMARK   72  A    between atoms: _174  and  _176
REMARK   73  A    between atoms: _176  and  _177
REMARK   74  A    between atoms: _176  and  _179
REMARK   75  A    between atoms: _179  and  _180
REMARK   76  A    between atoms: _183  and  _185
REMARK   77  A    between atoms: _185  and  _186
REMARK   78  A    between atoms: _185  and  _188
REMARK   79  A    between atoms: _188  and  _189
REMARK   80  A    between atoms: _195  and  _197
REMARK   81  A    between atoms: _197  and  _198
REMARK   82  A    between atoms: _197  and  _200
REMARK   83  A    between atoms: _200  and  _201
REMARK   84  A    between atoms: _206  and  _208
REMARK   85  A    between atoms: _208  and  _209
REMARK   86  A    between atoms: _208  and  _211
REMARK   87  A    between atoms: _211  and  _212
REMARK   88  A    between atoms: _217  and  _219
REMARK   89  A    between atoms: _219  and  _220
REMARK   90  A    between atoms: _219  and  _222
REMARK   91  A    between atoms: _222  and  _223
REMARK   92  A    between atoms: _225  and  _227
REMARK   93  A    between atoms: _227  and  _228
REMARK   94  A    between atoms: _227  and  _230
REMARK   95  A    between atoms: _230  and  _231
REMARK   96  A    between atoms: _237  and  _239
REMARK   97  A    between atoms: _239  and  _240
REMARK   98  A    between atoms: _243  and  _245
REMARK   99  A    between atoms: _245  and  _246
REMARK  100  A    between atoms: _245  and  _248
REMARK  101  A    between atoms: _248  and  _249
REMARK  102  A    between atoms: _249  and  _250
REMARK  103  A    between atoms: _250  and  _251
REMARK  104  A    between atoms: _260  and  _262
REMARK  105  A    between atoms: _262  and  _263
REMARK  106  A    between atoms: _262  and  _265
REMARK  107  A    between atoms: _265  and  _266
REMARK  108  A    between atoms: _269  and  _271
REMARK  109  A    between atoms: _271  and  _272
REMARK  110  A    between atoms: _271  and  _274
REMARK  111  A    between atoms: _274  and  _275
REMARK  112  A    between atoms: _278  and  _280
REMARK  113  A    between atoms: _280  and  _281
REMARK  114  A    between atoms: _280  and  _283
REMARK  115  A    between atoms: _283  and  _284
REMARK  116  A    between atoms: _287  and  _289
REMARK  117  A    between atoms: _289  and  _290
REMARK  118  A    between atoms: _289  and  _292
REMARK  119  A    between atoms: _295  and  _297
REMARK  120  A    between atoms: _297  and  _298
REMARK  121  A    between atoms: _297  and  _300
REMARK  122  A    between atoms: _303  and  _305
REMARK  123  A    between atoms: _305  and  _306
REMARK  124  A    between atoms: _308  and  _310
REMARK  125  A    between atoms: _310  and  _311
REMARK  126  A    between atoms: _310  and  _313
REMARK  127  A    between atoms: _313  and  _314
REMARK  128  A    between atoms: _318  and  ZN_601
REMARK  129  A    between atoms: _319  and  _321
REMARK  130  A    between atoms: _321  and  _322
REMARK  131  A    between atoms: _321  and  _324
REMARK  132  A    between atoms: _324  and  _325
REMARK  133  A    between atoms: _325  and  _326
REMARK  134  A    between atoms: _329  and  _331
REMARK  135  A    between atoms: _331  and  _332
REMARK  136  A    between atoms: _331  and  _334
REMARK  137  A    between atoms: _334  and  _335
REMARK  138  A    between atoms: _340  and  _341
REMARK  139  A    between atoms: _343  and  _345
REMARK  140  A    between atoms: _345  and  _346
REMARK  141  A    between atoms: _345  and  _348
REMARK  142  A    between atoms: _348  and  _349
REMARK  143  A    between atoms: _353  and  ZN_601
REMARK  144  A    between atoms: _354  and  _356
REMARK  145  A    between atoms: _356  and  _357
REMARK  146  A    between atoms: _356  and  _359
REMARK  147  A    between atoms: _359  and  _360
REMARK  148  A    between atoms: _365  and  _367
REMARK  149  A    between atoms: _367  and  _368
REMARK  150  A    between atoms: _367  and  _370
REMARK  151  A    between atoms: _370  and  _371
REMARK  152  A    between atoms: _381  and  _383
REMARK  153  A    between atoms: _383  and  _384
REMARK  154  A    between atoms: _383  and  _386
REMARK  155  A    between atoms: _386  and  _387
REMARK  156  A    between atoms: _390  and  _392
REMARK  157  A    between atoms: _392  and  _393
REMARK  158  A    between atoms: _392  and  _395
REMARK  159  A    between atoms: _395  and  _396
REMARK  160  A    between atoms: _396  and  _397
REMARK  161  A    between atoms: _397  and  _398
REMARK  162  A    between atoms: _398  and  _399
REMARK  163  A    between atoms: _403  and  _405
REMARK  164  A    between atoms: _405  and  _406
REMARK  165  A    between atoms: _405  and  _408
REMARK  166  A    between atoms: _408  and  _409
REMARK  167  A    between atoms: _409  and  _410
REMARK  168  A    between atoms: _410  and  _411
REMARK  169  A    between atoms: _411  and  ZN_601
REMARK  170  A    between atoms: _413  and  _415
REMARK  171  A    between atoms: _415  and  _416
REMARK  172  A    between atoms: _418  and  _420
REMARK  173  A    between atoms: _420  and  _421
REMARK  174  A    between atoms: _420  and  _423
REMARK  175  A    between atoms: _423  and  _424
REMARK  176  A    between atoms: _427  and  _429
REMARK  177  A    between atoms: _429  and  _430
REMARK  178  A    between atoms: _429  and  _432
REMARK  179  A    between atoms: _435  and  _437
REMARK  180  A    between atoms: _437  and  _438
REMARK  181  A    between atoms: _437  and  _440
REMARK  182  A    between atoms: _440  and  _441
REMARK  183  A    between atoms: _441  and  _442
REMARK  184  A    between atoms: _445  and  _447
REMARK  185  A    between atoms: _447  and  _448
REMARK  186  A    between atoms: _447  and  _450
REMARK  187  A    between atoms: _450  and  _451
REMARK  188  A    between atoms: _456  and  _458
REMARK  189  A    between atoms: _458  and  _459
REMARK  190  A    between atoms: _458  and  _461
REMARK  191  A    between atoms: _461  and  _462
REMARK  192  A    between atoms: _464  and  _466
REMARK  193  A    between atoms: _466  and  _467
REMARK  194  A    between atoms: _466  and  _469
REMARK  195  A    between atoms: _469  and  _470
REMARK  196  A    between atoms: _470  and  _471
REMARK  197  A    between atoms: _473  and  _475
REMARK  198  A    between atoms: _475  and  _476
REMARK  199  A    between atoms: _475  and  _478
REMARK  200  A    between atoms: _478  and  _479
REMARK  201  A    between atoms: _479  and  _480
REMARK  202  A    between atoms: _483  and  _485
REMARK  203  A    between atoms: _485  and  _486
REMARK  204  A    between atoms: _485  and  _488
REMARK  205  A    between atoms: _488  and  _489
REMARK  206  A    between atoms: _494  and  _496
REMARK  207  A    between atoms: _496  and  _497
REMARK  208  A    between atoms: _496  and  _499
REMARK  209  A    between atoms: _499  and  _500
REMARK  210  A    between atoms: _506  and  _508
REMARK  211  A    between atoms: _508  and  _509
REMARK  212  A    between atoms: _508  and  _511
REMARK  213  A    between atoms: _511  and  _512
REMARK  214  A    between atoms: _517  and  _518
REMARK  215  A    between atoms: _520  and  _522
REMARK  216  A    between atoms: _522  and  _523
REMARK  217  A    between atoms: _522  and  _525
REMARK  218  A    between atoms: _525  and  _526
REMARK  219  A    between atoms: _529  and  _531
REMARK  220  A    between atoms: _531  and  _532
REMARK  221  A    between atoms: _531  and  _534
REMARK  222  A    between atoms: _534  and  _535
REMARK  223  A    between atoms: _540  and  _541
REMARK  224  A    between atoms: _543  and  _545
REMARK  225  A    between atoms: _545  and  _546
REMARK  226  A    between atoms: _545  and  _548
REMARK  227  A    between atoms: _548  and  _549
REMARK  228  A    between atoms: _552  and  _554
REMARK  229  A    between atoms: _554  and  _555
REMARK  230  A    between atoms: _554  and  _557
REMARK  231  A    between atoms: _557  and  _558
REMARK  232  A    between atoms: _558  and  _559
REMARK  233  A    between atoms: _559  and  _560
REMARK  234  A    between atoms: _569  and  _571
REMARK  235  A    between atoms: _571  and  _572
REMARK  236  A    between atoms: _571  and  _574
REMARK  237  A    between atoms: _574  and  _575
REMARK  238  A    between atoms: _575  and  _576
REMARK  239  A    between atoms: _578  and  _580
REMARK  240  A    between atoms: _580  and  _581
REMARK  241  A    between atoms: _580  and  _583
REMARK  242  A    between atoms: _583  and  _584
REMARK  243  A    between atoms: _584  and  _585
REMARK  244  A    between atoms: _590  and  _592
REMARK  245  A    between atoms: _592  and  _593
REMARK  246  A    between atoms: _592  and  _595
REMARK  247  A    between atoms: _595  and  _596
REMARK                            x       y       z     vdW  Elec       q    Type
REMARK                         _______ _______ _______ _____ _____    ______ ____
ROOT
ATOM      1  O   HOH     1      18.324  15.891  20.029  0.00  0.00    +0.000 OA
ENDROOT
TORSDOF 0
REMARK  Name = ../refined-set-2016/3ebi/3ebi_pocket.pdb
REMARK  247 active torsions:
REMARK  status: ('A' for Active; 'I' for Inactive)
REMARK    1  A    between atoms: _1  and  _3
REMARK    2  A    between atoms: _3  and  _4
REMARK    3  A    between atoms: _7  and  _9
REMARK    4  A    between atoms: _9  and  _10
REMARK    5  A    between atoms: _9  and  _12
REMARK    6  A    between atoms: _12  and  _13
REMARK    7  A    between atoms: _16  and  _18
REMARK    8  A    between atoms: _18  and  _19
REMARK    9  A    between atoms: _18  and  _21
REMARK   10  A    between atoms: _21  and  _22
REMARK   11  A    between atoms: _25  and  _27
REMARK   12  A    between atoms: _27  and  _28
REMARK   13  A    between atoms: _30  and  _32
REMARK   14  A    between atoms: _32  and  _33
REMARK   15  A    between atoms: _32  and  _35
REMARK   16  A    between atoms: _35  and  _36
REMARK   17  A    between atoms: _36  and  _37
REMARK   18  A    between atoms: _42  and  _44
REMARK   19  A    between atoms: _44  and  _45
REMARK   20  A    between atoms: _44  and  _47
REMARK   21  A    between atoms: _49  and  _51
REMARK   22  A    between atoms: _51  and  _52
REMARK   23  A    between atoms: _51  and  _54
REMARK   24  A    between atoms: _54  and  _55
REMARK   25  A    between atoms: _55  and  _56
REMARK   26  A    between atoms: _59  and  _61
REMARK   27  A    between atoms: _61  and  _62
REMARK   28  A    between atoms: _65  and  _67
REMARK   29  A    between atoms: _67  and  _68
REMARK   30  A    between atoms: _67  and  _70
REMARK   31  A    between atoms: _70  and  _71
REMARK   32  A    between atoms: _74  and  _76
REMARK   33  A    between atoms: _76  and  _77
REMARK   34  A    between atoms: _79  and  _81
REMARK   35  A    between atoms: _81  and  _82
REMARK   36  A    between atoms: _81  and  _84
REMARK   37  A    between atoms: _84  and  _85
REMARK   38  A    between atoms: _90  and  _91
REMARK   39  A    between atoms: _93  and  _95
REMARK   40  A    between atoms: _95  and  _96
REMARK   41  A    between atoms: _95  and  _98
REMARK   42  A    between atoms: _98  and  _99
REMARK   43  A    between atoms: _102  and  _104
REMARK   44  A    between atoms: _104  and  _105
REMARK   45  A    between atoms: _104  and  _107
REMARK   46  A    between atoms: _107  and  _108
REMARK   47  A    between atoms: _114  and  _116
REMARK   48  A    between atoms: _116  and  _117
REMARK   49  A    between atoms: _116  and  _119
REMARK   50  A    between atoms: _119  and  _120
REMARK   51  A    between atoms: _125  and  _127
REMARK   52  A    between atoms: _127  and  _128
REMARK   53  A    between atoms: _127  and  _130
REMARK   54  A    between atoms: _133  and  _135
REMARK   55  A    between atoms: _135  and  _136
REMARK   56  A    between atoms: _138  and  _140
REMARK   57  A    between atoms: _140  and  _141
REMARK   58  A    between atoms: _144  and  _146
REMARK   59  A    between atoms: _146  and  _147
REMARK   60  A    between atoms: _146  and  _149
REMARK   61  A    between atoms: _149  and  _150
REMARK   62  A    between atoms: _150  and  _151
REMARK   63  A    between atoms: _153  and  _155
REMARK   64  A    between atoms: _155  and  _156
REMARK   65  A    between atoms: _155  and  _158
REMARK   66  A    between atoms: _158  and  _159
REMARK   67  A    between atoms: _159  and  _160
REMARK   68  A    between atoms: _163  and  _165
REMARK   69  A    between atoms: _165  and  _166
REMARK   70  A    between atoms: _165  and  _168
REMARK   71  A    between atoms: _168  and  _169
REMARK   72  A    between atoms: _174  and  _176
REMARK   73  A    between atoms: _176  and  _177
REMARK   74  A    between atoms: _176  and  _179
REMARK   75  A    between atoms: _179  and  _180
REMARK   76  A    between atoms: _183  and  _185
REMARK   77  A    between atoms: _185  and  _186
REMARK   78  A    between atoms: _185  and  _188
REMARK   79  A    between atoms: _188  and  _189
REMARK   80  A    between atoms: _195  and  _197
REMARK   81  A    between atoms: _197  and  _198
REMARK   82  A    between atoms: _197  and  _200
REMARK   83  A    between atoms: _200  and  _201
REMARK   84  A    between atoms: _206  and  _208
REMARK   85  A    between atoms: _208  and  _209
REMARK   86  A    between atoms: _208  and  _211
REMARK   87  A    between atoms: _211  and  _212
REMARK   88  A    between atoms: _217  and  _219
REMARK   89  A    between atoms: _219  and  _220
REMARK   90  A    between atoms: _219  and  _222
REMARK   91  A    between atoms: _222  and  _223
REMARK   92  A    between atoms: _225  and  _227
REMARK   93  A    between atoms: _227  and  _228
REMARK   94  A    between atoms: _227  and  _230
REMARK   95  A    between atoms: _230  and  _231
REMARK   96  A    between atoms: _237  and  _239
REMARK   97  A    between atoms: _239  and  _240
REMARK   98  A    between atoms: _243  and  _245
REMARK   99  A    between atoms: _245  and  _246
REMARK  100  A    between atoms: _245  and  _248
REMARK  101  A    between atoms: _248  and  _249
REMARK  102  A    between atoms: _249  and  _250
REMARK  103  A    between atoms: _250  and  _251
REMARK  104  A    between atoms: _260  and  _262
REMARK  105  A    between atoms: _262  and  _263
REMARK  106  A    between atoms: _262  and  _265
REMARK  107  A    between atoms: _265  and  _266
REMARK  108  A    between atoms: _269  and  _271
REMARK  109  A    between atoms: _271  and  _272
REMARK  110  A    between atoms: _271  and  _274
REMARK  111  A    between atoms: _274  and  _275
REMARK  112  A    between atoms: _278  and  _280
REMARK  113  A    between atoms: _280  and  _281
REMARK  114  A    between atoms: _280  and  _283
REMARK  115  A    between atoms: _283  and  _284
REMARK  116  A    between atoms: _287  and  _289
REMARK  117  A    between atoms: _289  and  _290
REMARK  118  A    between atoms: _289  and  _292
REMARK  119  A    between atoms: _295  and  _297
REMARK  120  A    between atoms: _297  and  _298
REMARK  121  A    between atoms: _297  and  _300
REMARK  122  A    between atoms: _303  and  _305
REMARK  123  A    between atoms: _305  and  _306
REMARK  124  A    between atoms: _308  and  _310
REMARK  125  A    between atoms: _310  and  _311
REMARK  126  A    between atoms: _310  and  _313
REMARK  127  A    between atoms: _313  and  _314
REMARK  128  A    between atoms: _318  and  ZN_601
REMARK  129  A    between atoms: _319  and  _321
REMARK  130  A    between atoms: _321  and  _322
REMARK  131  A    between atoms: _321  and  _324
REMARK  132  A    between atoms: _324  and  _325
REMARK  133  A    between atoms: _325  and  _326
REMARK  134  A    between atoms: _329  and  _331
REMARK  135  A    between atoms: _331  and  _332
REMARK  136  A    between atoms: _331  and  _334
REMARK  137  A    between atoms: _334  and  _335
REMARK  138  A    between atoms: _340  and  _341
REMARK  139  A    between atoms: _343  and  _345
REMARK  140  A    between atoms: _345  and  _346
REMARK  141  A    between atoms: _345  and  _348
REMARK  142  A    between atoms: _348  and  _349
REMARK  143  A    between atoms: _353  and  ZN_601
REMARK  144  A    between atoms: _354  and  _356
REMARK  145  A    between atoms: _356  and  _357
REMARK  146  A    between atoms: _356  and  _359
REMARK  147  A    between atoms: _359  and  _360
REMARK  148  A    between atoms: _365  and  _367
REMARK  149  A    between atoms: _367  and  _368
REMARK  150  A    between atoms: _367  and  _370
REMARK  151  A    between atoms: _370  and  _371
REMARK  152  A    between atoms: _381  and  _383
REMARK  153  A    between atoms: _383  and  _384
REMARK  154  A    between atoms: _383  and  _386
REMARK  155  A    between atoms: _386  and  _387
REMARK  156  A    between atoms: _390  and  _392
REMARK  157  A    between atoms: _392  and  _393
REMARK  158  A    between atoms: _392  and  _395
REMARK  159  A    between atoms: _395  and  _396
REMARK  160  A    between atoms: _396  and  _397
REMARK  161  A    between atoms: _397  and  _398
REMARK  162  A    between atoms: _398  and  _399
REMARK  163  A    between atoms: _403  and  _405
REMARK  164  A    between atoms: _405  and  _406
REMARK  165  A    between atoms: _405  and  _408
REMARK  166  A    between atoms: _408  and  _409
REMARK  167  A    between atoms: _409  and  _410
REMARK  168  A    between atoms: _410  and  _411
REMARK  169  A    between atoms: _411  and  ZN_601
REMARK  170  A    between atoms: _413  and  _415
REMARK  171  A    between atoms: _415  and  _416
REMARK  172  A    between atoms: _418  and  _420
REMARK  173  A    between atoms: _420  and  _421
REMARK  174  A    between atoms: _420  and  _423
REMARK  175  A    between atoms: _423  and  _424
REMARK  176  A    between atoms: _427  and  _429
REMARK  177  A    between atoms: _429  and  _430
REMARK  178  A    between atoms: _429  and  _432
REMARK  179  A    between atoms: _435  and  _437
REMARK  180  A    between atoms: _437  and  _438
REMARK  181  A    between atoms: _437  and  _440
REMARK  182  A    between atoms: _440  and  _441
REMARK  183  A    between atoms: _441  and  _442
REMARK  184  A    between atoms: _445  and  _447
REMARK  185  A    between atoms: _447  and  _448
REMARK  186  A    between atoms: _447  and  _450
REMARK  187  A    between atoms: _450  and  _451
REMARK  188  A    between atoms: _456  and  _458
REMARK  189  A    between atoms: _458  and  _459
REMARK  190  A    between atoms: _458  and  _461
REMARK  191  A    between atoms: _461  and  _462
REMARK  192  A    between atoms: _464  and  _466
REMARK  193  A    between atoms: _466  and  _467
REMARK  194  A    between atoms: _466  and  _469
REMARK  195  A    between atoms: _469  and  _470
REMARK  196  A    between atoms: _470  and  _471
REMARK  197  A    between atoms: _473  and  _475
REMARK  198  A    between atoms: _475  and  _476
REMARK  199  A    between atoms: _475  and  _478
REMARK  200  A    between atoms: _478  and  _479
REMARK  201  A    between atoms: _479  and  _480
REMARK  202  A    between atoms: _483  and  _485
REMARK  203  A    between atoms: _485  and  _486
REMARK  204  A    between atoms: _485  and  _488
REMARK  205  A    between atoms: _488  and  _489
REMARK  206  A    between atoms: _494  and  _496
REMARK  207  A    between atoms: _496  and  _497
REMARK  208  A    between atoms: _496  and  _499
REMARK  209  A    between atoms: _499  and  _500
REMARK  210  A    between atoms: _506  and  _508
REMARK  211  A    between atoms: _508  and  _509
REMARK  212  A    between atoms: _508  and  _511
REMARK  213  A    between atoms: _511  and  _512
REMARK  214  A    between atoms: _517  and  _518
REMARK  215  A    between atoms: _520  and  _522
REMARK  216  A    between atoms: _522  and  _523
REMARK  217  A    between atoms: _522  and  _525
REMARK  218  A    between atoms: _525  and  _526
REMARK  219  A    between atoms: _529  and  _531
REMARK  220  A    between atoms: _531  and  _532
REMARK  221  A    between atoms: _531  and  _534
REMARK  222  A    between atoms: _534  and  _535
REMARK  223  A    between atoms: _540  and  _541
REMARK  224  A    between atoms: _543  and  _545
REMARK  225  A    between atoms: _545  and  _546
REMARK  226  A    between atoms: _545  and  _548
REMARK  227  A    between atoms: _548  and  _549
REMARK  228  A    between atoms: _552  and  _554
REMARK  229  A    between atoms: _554  and  _555
REMARK  230  A    between atoms: _554  and  _557
REMARK  231  A    between atoms: _557  and  _558
REMARK  232  A    between atoms: _558  and  _559
REMARK  233  A    between atoms: _559  and  _560
REMARK  234  A    between atoms: _569  and  _571
REMARK  235  A    between atoms: _571  and  _572
REMARK  236  A    between atoms: _571  and  _574
REMARK  237  A    between atoms: _574  and  _575
REMARK  238  A    between atoms: _575  and  _576
REMARK  239  A    between atoms: _578  and  _580
REMARK  240  A    between atoms: _580  and  _581
REMARK  241  A    between atoms: _580  and  _583
REMARK  242  A    between atoms: _583  and  _584
REMARK  243  A    between atoms: _584  and  _585
REMARK  244  A    between atoms: _590  and  _592
REMARK  245  A    between atoms: _592  and  _593
REMARK  246  A    between atoms: _592  and  _595
REMARK  247  A    between atoms: _595  and  _596
REMARK                            x       y       z     vdW  Elec       q    Type
REMARK                         _______ _______ _______ _____ _____    ______ ____
ROOT
ATOM      1  O   HOH     1      16.126  11.783  25.895  0.00  0.00    +0.000 OA
ENDROOT
TORSDOF 0
REMARK  Name = ../refined-set-2016/3ebi/3ebi_pocket.pdb
REMARK  247 active torsions:
REMARK  status: ('A' for Active; 'I' for Inactive)
REMARK    1  A    between atoms: _1  and  _3
REMARK    2  A    between atoms: _3  and  _4
REMARK    3  A    between atoms: _7  and  _9
REMARK    4  A    between atoms: _9  and  _10
REMARK    5  A    between atoms: _9  and  _12
REMARK    6  A    between atoms: _12  and  _13
REMARK    7  A    between atoms: _16  and  _18
REMARK    8  A    between atoms: _18  and  _19
REMARK    9  A    between atoms: _18  and  _21
REMARK   10  A    between atoms: _21  and  _22
REMARK   11  A    between atoms: _25  and  _27
REMARK   12  A    between atoms: _27  and  _28
REMARK   13  A    between atoms: _30  and  _32
REMARK   14  A    between atoms: _32  and  _33
REMARK   15  A    between atoms: _32  and  _35
REMARK   16  A    between atoms: _35  and  _36
REMARK   17  A    between atoms: _36  and  _37
REMARK   18  A    between atoms: _42  and  _44
REMARK   19  A    between atoms: _44  and  _45
REMARK   20  A    between atoms: _44  and  _47
REMARK   21  A    between atoms: _49  and  _51
REMARK   22  A    between atoms: _51  and  _52
REMARK   23  A    between atoms: _51  and  _54
REMARK   24  A    between atoms: _54  and  _55
REMARK   25  A    between atoms: _55  and  _56
REMARK   26  A    between atoms: _59  and  _61
REMARK   27  A    between atoms: _61  and  _62
REMARK   28  A    between atoms: _65  and  _67
REMARK   29  A    between atoms: _67  and  _68
REMARK   30  A    between atoms: _67  and  _70
REMARK   31  A    between atoms: _70  and  _71
REMARK   32  A    between atoms: _74  and  _76
REMARK   33  A    between atoms: _76  and  _77
REMARK   34  A    between atoms: _79  and  _81
REMARK   35  A    between atoms: _81  and  _82
REMARK   36  A    between atoms: _81  and  _84
REMARK   37  A    between atoms: _84  and  _85
REMARK   38  A    between atoms: _90  and  _91
REMARK   39  A    between atoms: _93  and  _95
REMARK   40  A    between atoms: _95  and  _96
REMARK   41  A    between atoms: _95  and  _98
REMARK   42  A    between atoms: _98  and  _99
REMARK   43  A    between atoms: _102  and  _104
REMARK   44  A    between atoms: _104  and  _105
REMARK   45  A    between atoms: _104  and  _107
REMARK   46  A    between atoms: _107  and  _108
REMARK   47  A    between atoms: _114  and  _116
REMARK   48  A    between atoms: _116  and  _117
REMARK   49  A    between atoms: _116  and  _119
REMARK   50  A    between atoms: _119  and  _120
REMARK   51  A    between atoms: _125  and  _127
REMARK   52  A    between atoms: _127  and  _128
REMARK   53  A    between atoms: _127  and  _130
REMARK   54  A    between atoms: _133  and  _135
REMARK   55  A    between atoms: _135  and  _136
REMARK   56  A    between atoms: _138  and  _140
REMARK   57  A    between atoms: _140  and  _141
REMARK   58  A    between atoms: _144  and  _146
REMARK   59  A    between atoms: _146  and  _147
REMARK   60  A    between atoms: _146  and  _149
REMARK   61  A    between atoms: _149  and  _150
REMARK   62  A    between atoms: _150  and  _151
REMARK   63  A    between atoms: _153  and  _155
REMARK   64  A    between atoms: _155  and  _156
REMARK   65  A    between atoms: _155  and  _158
REMARK   66  A    between atoms: _158  and  _159
REMARK   67  A    between atoms: _159  and  _160
REMARK   68  A    between atoms: _163  and  _165
REMARK   69  A    between atoms: _165  and  _166
REMARK   70  A    between atoms: _165  and  _168
REMARK   71  A    between atoms: _168  and  _169
REMARK   72  A    between atoms: _174  and  _176
REMARK   73  A    between atoms: _176  and  _177
REMARK   74  A    between atoms: _176  and  _179
REMARK   75  A    between atoms: _179  and  _180
REMARK   76  A    between atoms: _183  and  _185
REMARK   77  A    between atoms: _185  and  _186
REMARK   78  A    between atoms: _185  and  _188
REMARK   79  A    between atoms: _188  and  _189
REMARK   80  A    between atoms: _195  and  _197
REMARK   81  A    between atoms: _197  and  _198
REMARK   82  A    between atoms: _197  and  _200
REMARK   83  A    between atoms: _200  and  _201
REMARK   84  A    between atoms: _206  and  _208
REMARK   85  A    between atoms: _208  and  _209
REMARK   86  A    between atoms: _208  and  _211
REMARK   87  A    between atoms: _211  and  _212
REMARK   88  A    between atoms: _217  and  _219
REMARK   89  A    between atoms: _219  and  _220
REMARK   90  A    between atoms: _219  and  _222
REMARK   91  A    between atoms: _222  and  _223
REMARK   92  A    between atoms: _225  and  _227
REMARK   93  A    between atoms: _227  and  _228
REMARK   94  A    between atoms: _227  and  _230
REMARK   95  A    between atoms: _230  and  _231
REMARK   96  A    between atoms: _237  and  _239
REMARK   97  A    between atoms: _239  and  _240
REMARK   98  A    between atoms: _243  and  _245
REMARK   99  A    between atoms: _245  and  _246
REMARK  100  A    between atoms: _245  and  _248
REMARK  101  A    between atoms: _248  and  _249
REMARK  102  A    between atoms: _249  and  _250
REMARK  103  A    between atoms: _250  and  _251
REMARK  104  A    between atoms: _260  and  _262
REMARK  105  A    between atoms: _262  and  _263
REMARK  106  A    between atoms: _262  and  _265
REMARK  107  A    between atoms: _265  and  _266
REMARK  108  A    between atoms: _269  and  _271
REMARK  109  A    between atoms: _271  and  _272
REMARK  110  A    between atoms: _271  and  _274
REMARK  111  A    between atoms: _274  and  _275
REMARK  112  A    between atoms: _278  and  _280
REMARK  113  A    between atoms: _280  and  _281
REMARK  114  A    between atoms: _280  and  _283
REMARK  115  A    between atoms: _283  and  _284
REMARK  116  A    between atoms: _287  and  _289
REMARK  117  A    between atoms: _289  and  _290
REMARK  118  A    between atoms: _289  and  _292
REMARK  119  A    between atoms: _295  and  _297
REMARK  120  A    between atoms: _297  and  _298
REMARK  121  A    between atoms: _297  and  _300
REMARK  122  A    between atoms: _303  and  _305
REMARK  123  A    between atoms: _305  and  _306
REMARK  124  A    between atoms: _308  and  _310
REMARK  125  A    between atoms: _310  and  _311
REMARK  126  A    between atoms: _310  and  _313
REMARK  127  A    between atoms: _313  and  _314
REMARK  128  A    between atoms: _318  and  ZN_601
REMARK  129  A    between atoms: _319  and  _321
REMARK  130  A    between atoms: _321  and  _322
REMARK  131  A    between atoms: _321  and  _324
REMARK  132  A    between atoms: _324  and  _325
REMARK  133  A    between atoms: _325  and  _326
REMARK  134  A    between atoms: _329  and  _331
REMARK  135  A    between atoms: _331  and  _332
REMARK  136  A    between atoms: _331  and  _334
REMARK  137  A    between atoms: _334  and  _335
REMARK  138  A    between atoms: _340  and  _341
REMARK  139  A    between atoms: _343  and  _345
REMARK  140  A    between atoms: _345  and  _346
REMARK  141  A    between atoms: _345  and  _348
REMARK  142  A    between atoms: _348  and  _349
REMARK  143  A    between atoms: _353  and  ZN_601
REMARK  144  A    between atoms: _354  and  _356
REMARK  145  A    between atoms: _356  and  _357
REMARK  146  A    between atoms: _356  and  _359
REMARK  147  A    between atoms: _359  and  _360
REMARK  148  A    between atoms: _365  and  _367
REMARK  149  A    between atoms: _367  and  _368
REMARK  150  A    between atoms: _367  and  _370
REMARK  151  A    between atoms: _370  and  _371
REMARK  152  A    between atoms: _381  and  _383
REMARK  153  A    between atoms: _383  and  _384
REMARK  154  A    between atoms: _383  and  _386
REMARK  155  A    between atoms: _386  and  _387
REMARK  156  A    between atoms: _390  and  _392
REMARK  157  A    between atoms: _392  and  _393
REMARK  158  A    between atoms: _392  and  _395
REMARK  159  A    between atoms: _395  and  _396
REMARK  160  A    between atoms: _396  and  _397
REMARK  161  A    between atoms: _397  and  _398
REMARK  162  A    between atoms: _398  and  _399
REMARK  163  A    between atoms: _403  and  _405
REMARK  164  A    between atoms: _405  and  _406
REMARK  165  A    between atoms: _405  and  _408
REMARK  166  A    between atoms: _408  and  _409
REMARK  167  A    between atoms: _409  and  _410
REMARK  168  A    between atoms: _410  and  _411
REMARK  169  A    between atoms: _411  and  ZN_601
REMARK  170  A    between atoms: _413  and  _415
REMARK  171  A    between atoms: _415  and  _416
REMARK  172  A    between atoms: _418  and  _420
REMARK  173  A    between atoms: _420  and  _421
REMARK  174  A    between atoms: _420  and  _423
REMARK  175  A    between atoms: _423  and  _424
REMARK  176  A    between atoms: _427  and  _429
REMARK  177  A    between atoms: _429  and  _430
REMARK  178  A    between atoms: _429  and  _432
REMARK  179  A    between atoms: _435  and  _437
REMARK  180  A    between atoms: _437  and  _438
REMARK  181  A    between atoms: _437  and  _440
REMARK  182  A    between atoms: _440  and  _441
REMARK  183  A    between atoms: _441  and  _442
REMARK  184  A    between atoms: _445  and  _447
REMARK  185  A    between atoms: _447  and  _448
REMARK  186  A    between atoms: _447  and  _450
REMARK  187  A    between atoms: _450  and  _451
REMARK  188  A    between atoms: _456  and  _458
REMARK  189  A    between atoms: _458  and  _459
REMARK  190  A    between atoms: _458  and  _461
REMARK  191  A    between atoms: _461  and  _462
REMARK  192  A    between atoms: _464  and  _466
REMARK  193  A    between atoms: _466  and  _467
REMARK  194  A    between atoms: _466  and  _469
REMARK  195  A    between atoms: _469  and  _470
REMARK  196  A    between atoms: _470  and  _471
REMARK  197  A    between atoms: _473  and  _475
REMARK  198  A    between atoms: _475  and  _476
REMARK  199  A    between atoms: _475  and  _478
REMARK  200  A    between atoms: _478  and  _479
REMARK  201  A    between atoms: _479  and  _480
REMARK  202  A    between atoms: _483  and  _485
REMARK  203  A    between atoms: _485  and  _486
REMARK  204  A    between atoms: _485  and  _488
REMARK  205  A    between atoms: _488  and  _489
REMARK  206  A    between atoms: _494  and  _496
REMARK  207  A    between atoms: _496  and  _497
REMARK  208  A    between atoms: _496  and  _499
REMARK  209  A    between atoms: _499  and  _500
REMARK  210  A    between atoms: _506  and  _508
REMARK  211  A    between atoms: _508  and  _509
REMARK  212  A    between atoms: _508  and  _511
REMARK  213  A    between atoms: _511  and  _512
REMARK  214  A    between atoms: _517  and  _518
REMARK  215  A    between atoms: _520  and  _522
REMARK  216  A    between atoms: _522  and  _523
REMARK  217  A    between atoms: _522  and  _525
REMARK  218  A    between atoms: _525  and  _526
REMARK  219  A    between atoms: _529  and  _531
REMARK  220  A    between atoms: _531  and  _532
REMARK  221  A    between atoms: _531  and  _534
REMARK  222  A    between atoms: _534  and  _535
REMARK  223  A    between atoms: _540  and  _541
REMARK  224  A    between atoms: _543  and  _545
REMARK  225  A    between atoms: _545  and  _546
REMARK  226  A    between atoms: _545  and  _548
REMARK  227  A    between atoms: _548  and  _549
REMARK  228  A    between atoms: _552  and  _554
REMARK  229  A    between atoms: _554  and  _555
REMARK  230  A    between atoms: _554  and  _557
REMARK  231  A    between atoms: _557  and  _558
REMARK  232  A    between atoms: _558  and  _559
REMARK  233  A    between atoms: _559  and  _560
REMARK  234  A    between atoms: _569  and  _571
REMARK  235  A    between atoms: _571  and  _572
REMARK  236  A    between atoms: _571  and  _574
REMARK  237  A    between atoms: _574  and  _575
REMARK  238  A    between atoms: _575  and  _576
REMARK  239  A    between atoms: _578  and  _580
REMARK  240  A    between atoms: _580  and  _581
REMARK  241  A    between atoms: _580  and  _583
REMARK  242  A    between atoms: _583  and  _584
REMARK  243  A    between atoms: _584  and  _585
REMARK  244  A    between atoms: _590  and  _592
REMARK  245  A    between atoms: _592  and  _593
REMARK  246  A    between atoms: _592  and  _595
REMARK  247  A    between atoms: _595  and  _596
REMARK                            x       y       z     vdW  Elec       q    Type
REMARK                         _______ _______ _______ _____ _____    ______ ____
ROOT
ATOM      1  O   HOH     1      10.353  14.629  24.782  0.00  0.00    +0.000 OA
ENDROOT
TORSDOF 0
REMARK  Name = ../refined-set-2016/3ebi/3ebi_pocket.pdb
REMARK  247 active torsions:
REMARK  status: ('A' for Active; 'I' for Inactive)
REMARK    1  A    between atoms: _1  and  _3
REMARK    2  A    between atoms: _3  and  _4
REMARK    3  A    between atoms: _7  and  _9
REMARK    4  A    between atoms: _9  and  _10
REMARK    5  A    between atoms: _9  and  _12
REMARK    6  A    between atoms: _12  and  _13
REMARK    7  A    between atoms: _16  and  _18
REMARK    8  A    between atoms: _18  and  _19
REMARK    9  A    between atoms: _18  and  _21
REMARK   10  A    between atoms: _21  and  _22
REMARK   11  A    between atoms: _25  and  _27
REMARK   12  A    between atoms: _27  and  _28
REMARK   13  A    between atoms: _30  and  _32
REMARK   14  A    between atoms: _32  and  _33
REMARK   15  A    between atoms: _32  and  _35
REMARK   16  A    between atoms: _35  and  _36
REMARK   17  A    between atoms: _36  and  _37
REMARK   18  A    between atoms: _42  and  _44
REMARK   19  A    between atoms: _44  and  _45
REMARK   20  A    between atoms: _44  and  _47
REMARK   21  A    between atoms: _49  and  _51
REMARK   22  A    between atoms: _51  and  _52
REMARK   23  A    between atoms: _51  and  _54
REMARK   24  A    between atoms: _54  and  _55
REMARK   25  A    between atoms: _55  and  _56
REMARK   26  A    between atoms: _59  and  _61
REMARK   27  A    between atoms: _61  and  _62
REMARK   28  A    between atoms: _65  and  _67
REMARK   29  A    between atoms: _67  and  _68
REMARK   30  A    between atoms: _67  and  _70
REMARK   31  A    between atoms: _70  and  _71
REMARK   32  A    between atoms: _74  and  _76
REMARK   33  A    between atoms: _76  and  _77
REMARK   34  A    between atoms: _79  and  _81
REMARK   35  A    between atoms: _81  and  _82
REMARK   36  A    between atoms: _81  and  _84
REMARK   37  A    between atoms: _84  and  _85
REMARK   38  A    between atoms: _90  and  _91
REMARK   39  A    between atoms: _93  and  _95
REMARK   40  A    between atoms: _95  and  _96
REMARK   41  A    between atoms: _95  and  _98
REMARK   42  A    between atoms: _98  and  _99
REMARK   43  A    between atoms: _102  and  _104
REMARK   44  A    between atoms: _104  and  _105
REMARK   45  A    between atoms: _104  and  _107
REMARK   46  A    between atoms: _107  and  _108
REMARK   47  A    between atoms: _114  and  _116
REMARK   48  A    between atoms: _116  and  _117
REMARK   49  A    between atoms: _116  and  _119
REMARK   50  A    between atoms: _119  and  _120
REMARK   51  A    between atoms: _125  and  _127
REMARK   52  A    between atoms: _127  and  _128
REMARK   53  A    between atoms: _127  and  _130
REMARK   54  A    between atoms: _133  and  _135
REMARK   55  A    between atoms: _135  and  _136
REMARK   56  A    between atoms: _138  and  _140
REMARK   57  A    between atoms: _140  and  _141
REMARK   58  A    between atoms: _144  and  _146
REMARK   59  A    between atoms: _146  and  _147
REMARK   60  A    between atoms: _146  and  _149
REMARK   61  A    between atoms: _149  and  _150
REMARK   62  A    between atoms: _150  and  _151
REMARK   63  A    between atoms: _153  and  _155
REMARK   64  A    between atoms: _155  and  _156
REMARK   65  A    between atoms: _155  and  _158
REMARK   66  A    between atoms: _158  and  _159
REMARK   67  A    between atoms: _159  and  _160
REMARK   68  A    between atoms: _163  and  _165
REMARK   69  A    between atoms: _165  and  _166
REMARK   70  A    between atoms: _165  and  _168
REMARK   71  A    between atoms: _168  and  _169
REMARK   72  A    between atoms: _174  and  _176
REMARK   73  A    between atoms: _176  and  _177
REMARK   74  A    between atoms: _176  and  _179
REMARK   75  A    between atoms: _179  and  _180
REMARK   76  A    between atoms: _183  and  _185
REMARK   77  A    between atoms: _185  and  _186
REMARK   78  A    between atoms: _185  and  _188
REMARK   79  A    between atoms: _188  and  _189
REMARK   80  A    between atoms: _195  and  _197
REMARK   81  A    between atoms: _197  and  _198
REMARK   82  A    between atoms: _197  and  _200
REMARK   83  A    between atoms: _200  and  _201
REMARK   84  A    between atoms: _206  and  _208
REMARK   85  A    between atoms: _208  and  _209
REMARK   86  A    between atoms: _208  and  _211
REMARK   87  A    between atoms: _211  and  _212
REMARK   88  A    between atoms: _217  and  _219
REMARK   89  A    between atoms: _219  and  _220
REMARK   90  A    between atoms: _219  and  _222
REMARK   91  A    between atoms: _222  and  _223
REMARK   92  A    between atoms: _225  and  _227
REMARK   93  A    between atoms: _227  and  _228
REMARK   94  A    between atoms: _227  and  _230
REMARK   95  A    between atoms: _230  and  _231
REMARK   96  A    between atoms: _237  and  _239
REMARK   97  A    between atoms: _239  and  _240
REMARK   98  A    between atoms: _243  and  _245
REMARK   99  A    between atoms: _245  and  _246
REMARK  100  A    between atoms: _245  and  _248
REMARK  101  A    between atoms: _248  and  _249
REMARK  102  A    between atoms: _249  and  _250
REMARK  103  A    between atoms: _250  and  _251
REMARK  104  A    between atoms: _260  and  _262
REMARK  105  A    between atoms: _262  and  _263
REMARK  106  A    between atoms: _262  and  _265
REMARK  107  A    between atoms: _265  and  _266
REMARK  108  A    between atoms: _269  and  _271
REMARK  109  A    between atoms: _271  and  _272
REMARK  110  A    between atoms: _271  and  _274
REMARK  111  A    between atoms: _274  and  _275
REMARK  112  A    between atoms: _278  and  _280
REMARK  113  A    between atoms: _280  and  _281
REMARK  114  A    between atoms: _280  and  _283
REMARK  115  A    between atoms: _283  and  _284
REMARK  116  A    between atoms: _287  and  _289
REMARK  117  A    between atoms: _289  and  _290
REMARK  118  A    between atoms: _289  and  _292
REMARK  119  A    between atoms: _295  and  _297
REMARK  120  A    between atoms: _297  and  _298
REMARK  121  A    between atoms: _297  and  _300
REMARK  122  A    between atoms: _303  and  _305
REMARK  123  A    between atoms: _305  and  _306
REMARK  124  A    between atoms: _308  and  _310
REMARK  125  A    between atoms: _310  and  _311
REMARK  126  A    between atoms: _310  and  _313
REMARK  127  A    between atoms: _313  and  _314
REMARK  128  A    between atoms: _318  and  ZN_601
REMARK  129  A    between atoms: _319  and  _321
REMARK  130  A    between atoms: _321  and  _322
REMARK  131  A    between atoms: _321  and  _324
REMARK  132  A    between atoms: _324  and  _325
REMARK  133  A    between atoms: _325  and  _326
REMARK  134  A    between atoms: _329  and  _331
REMARK  135  A    between atoms: _331  and  _332
REMARK  136  A    between atoms: _331  and  _334
REMARK  137  A    between atoms: _334  and  _335
REMARK  138  A    between atoms: _340  and  _341
REMARK  139  A    between atoms: _343  and  _345
REMARK  140  A    between atoms: _345  and  _346
REMARK  141  A    between atoms: _345  and  _348
REMARK  142  A    between atoms: _348  and  _349
REMARK  143  A    between atoms: _353  and  ZN_601
REMARK  144  A    between atoms: _354  and  _356
REMARK  145  A    between atoms: _356  and  _357
REMARK  146  A    between atoms: _356  and  _359
REMARK  147  A    between atoms: _359  and  _360
REMARK  148  A    between atoms: _365  and  _367
REMARK  149  A    between atoms: _367  and  _368
REMARK  150  A    between atoms: _367  and  _370
REMARK  151  A    between atoms: _370  and  _371
REMARK  152  A    between atoms: _381  and  _383
REMARK  153  A    between atoms: _383  and  _384
REMARK  154  A    between atoms: _383  and  _386
REMARK  155  A    between atoms: _386  and  _387
REMARK  156  A    between atoms: _390  and  _392
REMARK  157  A    between atoms: _392  and  _393
REMARK  158  A    between atoms: _392  and  _395
REMARK  159  A    between atoms: _395  and  _396
REMARK  160  A    between atoms: _396  and  _397
REMARK  161  A    between atoms: _397  and  _398
REMARK  162  A    between atoms: _398  and  _399
REMARK  163  A    between atoms: _403  and  _405
REMARK  164  A    between atoms: _405  and  _406
REMARK  165  A    between atoms: _405  and  _408
REMARK  166  A    between atoms: _408  and  _409
REMARK  167  A    between atoms: _409  and  _410
REMARK  168  A    between atoms: _410  and  _411
REMARK  169  A    between atoms: _411  and  ZN_601
REMARK  170  A    between atoms: _413  and  _415
REMARK  171  A    between atoms: _415  and  _416
REMARK  172  A    between atoms: _418  and  _420
REMARK  173  A    between atoms: _420  and  _421
REMARK  174  A    between atoms: _420  and  _423
REMARK  175  A    between atoms: _423  and  _424
REMARK  176  A    between atoms: _427  and  _429
REMARK  177  A    between atoms: _429  and  _430
REMARK  178  A    between atoms: _429  and  _432
REMARK  179  A    between atoms: _435  and  _437
REMARK  180  A    between atoms: _437  and  _438
REMARK  181  A    between atoms: _437  and  _440
REMARK  182  A    between atoms: _440  and  _441
REMARK  183  A    between atoms: _441  and  _442
REMARK  184  A    between atoms: _445  and  _447
REMARK  185  A    between atoms: _447  and  _448
REMARK  186  A    between atoms: _447  and  _450
REMARK  187  A    between atoms: _450  and  _451
REMARK  188  A    between atoms: _456  and  _458
REMARK  189  A    between atoms: _458  and  _459
REMARK  190  A    between atoms: _458  and  _461
REMARK  191  A    between atoms: _461  and  _462
REMARK  192  A    between atoms: _464  and  _466
REMARK  193  A    between atoms: _466  and  _467
REMARK  194  A    between atoms: _466  and  _469
REMARK  195  A    between atoms: _469  and  _470
REMARK  196  A    between atoms: _470  and  _471
REMARK  197  A    between atoms: _473  and  _475
REMARK  198  A    between atoms: _475  and  _476
REMARK  199  A    between atoms: _475  and  _478
REMARK  200  A    between atoms: _478  and  _479
REMARK  201  A    between atoms: _479  and  _480
REMARK  202  A    between atoms: _483  and  _485
REMARK  203  A    between atoms: _485  and  _486
REMARK  204  A    between atoms: _485  and  _488
REMARK  205  A    between atoms: _488  and  _489
REMARK  206  A    between atoms: _494  and  _496
REMARK  207  A    between atoms: _496  and  _497
REMARK  208  A    between atoms: _496  and  _499
REMARK  209  A    between atoms: _499  and  _500
REMARK  210  A    between atoms: _506  and  _508
REMARK  211  A    between atoms: _508  and  _509
REMARK  212  A    between atoms: _508  and  _511
REMARK  213  A    between atoms: _511  and  _512
REMARK  214  A    between atoms: _517  and  _518
REMARK  215  A    between atoms: _520  and  _522
REMARK  216  A    between atoms: _522  and  _523
REMARK  217  A    between atoms: _522  and  _525
REMARK  218  A    between atoms: _525  and  _526
REMARK  219  A    between atoms: _529  and  _531
REMARK  220  A    between atoms: _531  and  _532
REMARK  221  A    between atoms: _531  and  _534
REMARK  222  A    between atoms: _534  and  _535
REMARK  223  A    between atoms: _540  and  _541
REMARK  224  A    between atoms: _543  and  _545
REMARK  225  A    between atoms: _545  and  _546
REMARK  226  A    between atoms: _545  and  _548
REMARK  227  A    between atoms: _548  and  _549
REMARK  228  A    between atoms: _552  and  _554
REMARK  229  A    between atoms: _554  and  _555
REMARK  230  A    between atoms: _554  and  _557
REMARK  231  A    between atoms: _557  and  _558
REMARK  232  A    between atoms: _558  and  _559
REMARK  233  A    between atoms: _559  and  _560
REMARK  234  A    between atoms: _569  and  _571
REMARK  235  A    between atoms: _571  and  _572
REMARK  236  A    between atoms: _571  and  _574
REMARK  237  A    between atoms: _574  and  _575
REMARK  238  A    between atoms: _575  and  _576
REMARK  239  A    between atoms: _578  and  _580
REMARK  240  A    between atoms: _580  and  _581
REMARK  241  A    between atoms: _580  and  _583
REMARK  242  A    between atoms: _583  and  _584
REMARK  243  A    between atoms: _584  and  _585
REMARK  244  A    between atoms: _590  and  _592
REMARK  245  A    between atoms: _592  and  _593
REMARK  246  A    between atoms: _592  and  _595
REMARK  247  A    between atoms: _595  and  _596
REMARK                            x       y       z     vdW  Elec       q    Type
REMARK                         _______ _______ _______ _____ _____    ______ ____
ROOT
ATOM      1  O   HOH     1      12.434  14.462  21.524  0.00  0.00    +0.000 OA
ENDROOT
TORSDOF 0
REMARK  Name = ../refined-set-2016/3ebi/3ebi_pocket.pdb
REMARK  247 active torsions:
REMARK  status: ('A' for Active; 'I' for Inactive)
REMARK    1  A    between atoms: _1  and  _3
REMARK    2  A    between atoms: _3  and  _4
REMARK    3  A    between atoms: _7  and  _9
REMARK    4  A    between atoms: _9  and  _10
REMARK    5  A    between atoms: _9  and  _12
REMARK    6  A    between atoms: _12  and  _13
REMARK    7  A    between atoms: _16  and  _18
REMARK    8  A    between atoms: _18  and  _19
REMARK    9  A    between atoms: _18  and  _21
REMARK   10  A    between atoms: _21  and  _22
REMARK   11  A    between atoms: _25  and  _27
REMARK   12  A    between atoms: _27  and  _28
REMARK   13  A    between atoms: _30  and  _32
REMARK   14  A    between atoms: _32  and  _33
REMARK   15  A    between atoms: _32  and  _35
REMARK   16  A    between atoms: _35  and  _36
REMARK   17  A    between atoms: _36  and  _37
REMARK   18  A    between atoms: _42  and  _44
REMARK   19  A    between atoms: _44  and  _45
REMARK   20  A    between atoms: _44  and  _47
REMARK   21  A    between atoms: _49  and  _51
REMARK   22  A    between atoms: _51  and  _52
REMARK   23  A    between atoms: _51  and  _54
REMARK   24  A    between atoms: _54  and  _55
REMARK   25  A    between atoms: _55  and  _56
REMARK   26  A    between atoms: _59  and  _61
REMARK   27  A    between atoms: _61  and  _62
REMARK   28  A    between atoms: _65  and  _67
REMARK   29  A    between atoms: _67  and  _68
REMARK   30  A    between atoms: _67  and  _70
REMARK   31  A    between atoms: _70  and  _71
REMARK   32  A    between atoms: _74  and  _76
REMARK   33  A    between atoms: _76  and  _77
REMARK   34  A    between atoms: _79  and  _81
REMARK   35  A    between atoms: _81  and  _82
REMARK   36  A    between atoms: _81  and  _84
REMARK   37  A    between atoms: _84  and  _85
REMARK   38  A    between atoms: _90  and  _91
REMARK   39  A    between atoms: _93  and  _95
REMARK   40  A    between atoms: _95  and  _96
REMARK   41  A    between atoms: _95  and  _98
REMARK   42  A    between atoms: _98  and  _99
REMARK   43  A    between atoms: _102  and  _104
REMARK   44  A    between atoms: _104  and  _105
REMARK   45  A    between atoms: _104  and  _107
REMARK   46  A    between atoms: _107  and  _108
REMARK   47  A    between atoms: _114  and  _116
REMARK   48  A    between atoms: _116  and  _117
REMARK   49  A    between atoms: _116  and  _119
REMARK   50  A    between atoms: _119  and  _120
REMARK   51  A    between atoms: _125  and  _127
REMARK   52  A    between atoms: _127  and  _128
REMARK   53  A    between atoms: _127  and  _130
REMARK   54  A    between atoms: _133  and  _135
REMARK   55  A    between atoms: _135  and  _136
REMARK   56  A    between atoms: _138  and  _140
REMARK   57  A    between atoms: _140  and  _141
REMARK   58  A    between atoms: _144  and  _146
REMARK   59  A    between atoms: _146  and  _147
REMARK   60  A    between atoms: _146  and  _149
REMARK   61  A    between atoms: _149  and  _150
REMARK   62  A    between atoms: _150  and  _151
REMARK   63  A    between atoms: _153  and  _155
REMARK   64  A    between atoms: _155  and  _156
REMARK   65  A    between atoms: _155  and  _158
REMARK   66  A    between atoms: _158  and  _159
REMARK   67  A    between atoms: _159  and  _160
REMARK   68  A    between atoms: _163  and  _165
REMARK   69  A    between atoms: _165  and  _166
REMARK   70  A    between atoms: _165  and  _168
REMARK   71  A    between atoms: _168  and  _169
REMARK   72  A    between atoms: _174  and  _176
REMARK   73  A    between atoms: _176  and  _177
REMARK   74  A    between atoms: _176  and  _179
REMARK   75  A    between atoms: _179  and  _180
REMARK   76  A    between atoms: _183  and  _185
REMARK   77  A    between atoms: _185  and  _186
REMARK   78  A    between atoms: _185  and  _188
REMARK   79  A    between atoms: _188  and  _189
REMARK   80  A    between atoms: _195  and  _197
REMARK   81  A    between atoms: _197  and  _198
REMARK   82  A    between atoms: _197  and  _200
REMARK   83  A    between atoms: _200  and  _201
REMARK   84  A    between atoms: _206  and  _208
REMARK   85  A    between atoms: _208  and  _209
REMARK   86  A    between atoms: _208  and  _211
REMARK   87  A    between atoms: _211  and  _212
REMARK   88  A    between atoms: _217  and  _219
REMARK   89  A    between atoms: _219  and  _220
REMARK   90  A    between atoms: _219  and  _222
REMARK   91  A    between atoms: _222  and  _223
REMARK   92  A    between atoms: _225  and  _227
REMARK   93  A    between atoms: _227  and  _228
REMARK   94  A    between atoms: _227  and  _230
REMARK   95  A    between atoms: _230  and  _231
REMARK   96  A    between atoms: _237  and  _239
REMARK   97  A    between atoms: _239  and  _240
REMARK   98  A    between atoms: _243  and  _245
REMARK   99  A    between atoms: _245  and  _246
REMARK  100  A    between atoms: _245  and  _248
REMARK  101  A    between atoms: _248  and  _249
REMARK  102  A    between atoms: _249  and  _250
REMARK  103  A    between atoms: _250  and  _251
REMARK  104  A    between atoms: _260  and  _262
REMARK  105  A    between atoms: _262  and  _263
REMARK  106  A    between atoms: _262  and  _265
REMARK  107  A    between atoms: _265  and  _266
REMARK  108  A    between atoms: _269  and  _271
REMARK  109  A    between atoms: _271  and  _272
REMARK  110  A    between atoms: _271  and  _274
REMARK  111  A    between atoms: _274  and  _275
REMARK  112  A    between atoms: _278  and  _280
REMARK  113  A    between atoms: _280  and  _281
REMARK  114  A    between atoms: _280  and  _283
REMARK  115  A    between atoms: _283  and  _284
REMARK  116  A    between atoms: _287  and  _289
REMARK  117  A    between atoms: _289  and  _290
REMARK  118  A    between atoms: _289  and  _292
REMARK  119  A    between atoms: _295  and  _297
REMARK  120  A    between atoms: _297  and  _298
REMARK  121  A    between atoms: _297  and  _300
REMARK  122  A    between atoms: _303  and  _305
REMARK  123  A    between atoms: _305  and  _306
REMARK  124  A    between atoms: _308  and  _310
REMARK  125  A    between atoms: _310  and  _311
REMARK  126  A    between atoms: _310  and  _313
REMARK  127  A    between atoms: _313  and  _314
REMARK  128  A    between atoms: _318  and  ZN_601
REMARK  129  A    between atoms: _319  and  _321
REMARK  130  A    between atoms: _321  and  _322
REMARK  131  A    between atoms: _321  and  _324
REMARK  132  A    between atoms: _324  and  _325
REMARK  133  A    between atoms: _325  and  _326
REMARK  134  A    between atoms: _329  and  _331
REMARK  135  A    between atoms: _331  and  _332
REMARK  136  A    between atoms: _331  and  _334
REMARK  137  A    between atoms: _334  and  _335
REMARK  138  A    between atoms: _340  and  _341
REMARK  139  A    between atoms: _343  and  _345
REMARK  140  A    between atoms: _345  and  _346
REMARK  141  A    between atoms: _345  and  _348
REMARK  142  A    between atoms: _348  and  _349
REMARK  143  A    between atoms: _353  and  ZN_601
REMARK  144  A    between atoms: _354  and  _356
REMARK  145  A    between atoms: _356  and  _357
REMARK  146  A    between atoms: _356  and  _359
REMARK  147  A    between atoms: _359  and  _360
REMARK  148  A    between atoms: _365  and  _367
REMARK  149  A    between atoms: _367  and  _368
REMARK  150  A    between atoms: _367  and  _370
REMARK  151  A    between atoms: _370  and  _371
REMARK  152  A    between atoms: _381  and  _383
REMARK  153  A    between atoms: _383  and  _384
REMARK  154  A    between atoms: _383  and  _386
REMARK  155  A    between atoms: _386  and  _387
REMARK  156  A    between atoms: _390  and  _392
REMARK  157  A    between atoms: _392  and  _393
REMARK  158  A    between atoms: _392  and  _395
REMARK  159  A    between atoms: _395  and  _396
REMARK  160  A    between atoms: _396  and  _397
REMARK  161  A    between atoms: _397  and  _398
REMARK  162  A    between atoms: _398  and  _399
REMARK  163  A    between atoms: _403  and  _405
REMARK  164  A    between atoms: _405  and  _406
REMARK  165  A    between atoms: _405  and  _408
REMARK  166  A    between atoms: _408  and  _409
REMARK  167  A    between atoms: _409  and  _410
REMARK  168  A    between atoms: _410  and  _411
REMARK  169  A    between atoms: _411  and  ZN_601
REMARK  170  A    between atoms: _413  and  _415
REMARK  171  A    between atoms: _415  and  _416
REMARK  172  A    between atoms: _418  and  _420
REMARK  173  A    between atoms: _420  and  _421
REMARK  174  A    between atoms: _420  and  _423
REMARK  175  A    between atoms: _423  and  _424
REMARK  176  A    between atoms: _427  and  _429
REMARK  177  A    between atoms: _429  and  _430
REMARK  178  A    between atoms: _429  and  _432
REMARK  179  A    between atoms: _435  and  _437
REMARK  180  A    between atoms: _437  and  _438
REMARK  181  A    between atoms: _437  and  _440
REMARK  182  A    between atoms: _440  and  _441
REMARK  183  A    between atoms: _441  and  _442
REMARK  184  A    between atoms: _445  and  _447
REMARK  185  A    between atoms: _447  and  _448
REMARK  186  A    between atoms: _447  and  _450
REMARK  187  A    between atoms: _450  and  _451
REMARK  188  A    between atoms: _456  and  _458
REMARK  189  A    between atoms: _458  and  _459
REMARK  190  A    between atoms: _458  and  _461
REMARK  191  A    between atoms: _461  and  _462
REMARK  192  A    between atoms: _464  and  _466
REMARK  193  A    between atoms: _466  and  _467
REMARK  194  A    between atoms: _466  and  _469
REMARK  195  A    between atoms: _469  and  _470
REMARK  196  A    between atoms: _470  and  _471
REMARK  197  A    between atoms: _473  and  _475
REMARK  198  A    between atoms: _475  and  _476
REMARK  199  A    between atoms: _475  and  _478
REMARK  200  A    between atoms: _478  and  _479
REMARK  201  A    between atoms: _479  and  _480
REMARK  202  A    between atoms: _483  and  _485
REMARK  203  A    between atoms: _485  and  _486
REMARK  204  A    between atoms: _485  and  _488
REMARK  205  A    between atoms: _488  and  _489
REMARK  206  A    between atoms: _494  and  _496
REMARK  207  A    between atoms: _496  and  _497
REMARK  208  A    between atoms: _496  and  _499
REMARK  209  A    between atoms: _499  and  _500
REMARK  210  A    between atoms: _506  and  _508
REMARK  211  A    between atoms: _508  and  _509
REMARK  212  A    between atoms: _508  and  _511
REMARK  213  A    between atoms: _511  and  _512
REMARK  214  A    between atoms: _517  and  _518
REMARK  215  A    between atoms: _520  and  _522
REMARK  216  A    between atoms: _522  and  _523
REMARK  217  A    between atoms: _522  and  _525
REMARK  218  A    between atoms: _525  and  _526
REMARK  219  A    between atoms: _529  and  _531
REMARK  220  A    between atoms: _531  and  _532
REMARK  221  A    between atoms: _531  and  _534
REMARK  222  A    between atoms: _534  and  _535
REMARK  223  A    between atoms: _540  and  _541
REMARK  224  A    between atoms: _543  and  _545
REMARK  225  A    between atoms: _545  and  _546
REMARK  226  A    between atoms: _545  and  _548
REMARK  227  A    between atoms: _548  and  _549
REMARK  228  A    between atoms: _552  and  _554
REMARK  229  A    between atoms: _554  and  _555
REMARK  230  A    between atoms: _554  and  _557
REMARK  231  A    between atoms: _557  and  _558
REMARK  232  A    between atoms: _558  and  _559
REMARK  233  A    between atoms: _559  and  _560
REMARK  234  A    between atoms: _569  and  _571
REMARK  235  A    between atoms: _571  and  _572
REMARK  236  A    between atoms: _571  and  _574
REMARK  237  A    between atoms: _574  and  _575
REMARK  238  A    between atoms: _575  and  _576
REMARK  239  A    between atoms: _578  and  _580
REMARK  240  A    between atoms: _580  and  _581
REMARK  241  A    between atoms: _580  and  _583
REMARK  242  A    between atoms: _583  and  _584
REMARK  243  A    between atoms: _584  and  _585
REMARK  244  A    between atoms: _590  and  _592
REMARK  245  A    between atoms: _592  and  _593
REMARK  246  A    between atoms: _592  and  _595
REMARK  247  A    between atoms: _595  and  _596
REMARK                            x       y       z     vdW  Elec       q    Type
REMARK                         _______ _______ _______ _____ _____    ______ ____
ROOT
ATOM      1  O   HOH     1      16.402   6.002  18.462  0.00  0.00    +0.000 OA
ENDROOT
TORSDOF 0
REMARK  Name = ../refined-set-2016/3ebi/3ebi_pocket.pdb
REMARK  247 active torsions:
REMARK  status: ('A' for Active; 'I' for Inactive)
REMARK    1  A    between atoms: _1  and  _3
REMARK    2  A    between atoms: _3  and  _4
REMARK    3  A    between atoms: _7  and  _9
REMARK    4  A    between atoms: _9  and  _10
REMARK    5  A    between atoms: _9  and  _12
REMARK    6  A    between atoms: _12  and  _13
REMARK    7  A    between atoms: _16  and  _18
REMARK    8  A    between atoms: _18  and  _19
REMARK    9  A    between atoms: _18  and  _21
REMARK   10  A    between atoms: _21  and  _22
REMARK   11  A    between atoms: _25  and  _27
REMARK   12  A    between atoms: _27  and  _28
REMARK   13  A    between atoms: _30  and  _32
REMARK   14  A    between atoms: _32  and  _33
REMARK   15  A    between atoms: _32  and  _35
REMARK   16  A    between atoms: _35  and  _36
REMARK   17  A    between atoms: _36  and  _37
REMARK   18  A    between atoms: _42  and  _44
REMARK   19  A    between atoms: _44  and  _45
REMARK   20  A    between atoms: _44  and  _47
REMARK   21  A    between atoms: _49  and  _51
REMARK   22  A    between atoms: _51  and  _52
REMARK   23  A    between atoms: _51  and  _54
REMARK   24  A    between atoms: _54  and  _55
REMARK   25  A    between atoms: _55  and  _56
REMARK   26  A    between atoms: _59  and  _61
REMARK   27  A    between atoms: _61  and  _62
REMARK   28  A    between atoms: _65  and  _67
REMARK   29  A    between atoms: _67  and  _68
REMARK   30  A    between atoms: _67  and  _70
REMARK   31  A    between atoms: _70  and  _71
REMARK   32  A    between atoms: _74  and  _76
REMARK   33  A    between atoms: _76  and  _77
REMARK   34  A    between atoms: _79  and  _81
REMARK   35  A    between atoms: _81  and  _82
REMARK   36  A    between atoms: _81  and  _84
REMARK   37  A    between atoms: _84  and  _85
REMARK   38  A    between atoms: _90  and  _91
REMARK   39  A    between atoms: _93  and  _95
REMARK   40  A    between atoms: _95  and  _96
REMARK   41  A    between atoms: _95  and  _98
REMARK   42  A    between atoms: _98  and  _99
REMARK   43  A    between atoms: _102  and  _104
REMARK   44  A    between atoms: _104  and  _105
REMARK   45  A    between atoms: _104  and  _107
REMARK   46  A    between atoms: _107  and  _108
REMARK   47  A    between atoms: _114  and  _116
REMARK   48  A    between atoms: _116  and  _117
REMARK   49  A    between atoms: _116  and  _119
REMARK   50  A    between atoms: _119  and  _120
REMARK   51  A    between atoms: _125  and  _127
REMARK   52  A    between atoms: _127  and  _128
REMARK   53  A    between atoms: _127  and  _130
REMARK   54  A    between atoms: _133  and  _135
REMARK   55  A    between atoms: _135  and  _136
REMARK   56  A    between atoms: _138  and  _140
REMARK   57  A    between atoms: _140  and  _141
REMARK   58  A    between atoms: _144  and  _146
REMARK   59  A    between atoms: _146  and  _147
REMARK   60  A    between atoms: _146  and  _149
REMARK   61  A    between atoms: _149  and  _150
REMARK   62  A    between atoms: _150  and  _151
REMARK   63  A    between atoms: _153  and  _155
REMARK   64  A    between atoms: _155  and  _156
REMARK   65  A    between atoms: _155  and  _158
REMARK   66  A    between atoms: _158  and  _159
REMARK   67  A    between atoms: _159  and  _160
REMARK   68  A    between atoms: _163  and  _165
REMARK   69  A    between atoms: _165  and  _166
REMARK   70  A    between atoms: _165  and  _168
REMARK   71  A    between atoms: _168  and  _169
REMARK   72  A    between atoms: _174  and  _176
REMARK   73  A    between atoms: _176  and  _177
REMARK   74  A    between atoms: _176  and  _179
REMARK   75  A    between atoms: _179  and  _180
REMARK   76  A    between atoms: _183  and  _185
REMARK   77  A    between atoms: _185  and  _186
REMARK   78  A    between atoms: _185  and  _188
REMARK   79  A    between atoms: _188  and  _189
REMARK   80  A    between atoms: _195  and  _197
REMARK   81  A    between atoms: _197  and  _198
REMARK   82  A    between atoms: _197  and  _200
REMARK   83  A    between atoms: _200  and  _201
REMARK   84  A    between atoms: _206  and  _208
REMARK   85  A    between atoms: _208  and  _209
REMARK   86  A    between atoms: _208  and  _211
REMARK   87  A    between atoms: _211  and  _212
REMARK   88  A    between atoms: _217  and  _219
REMARK   89  A    between atoms: _219  and  _220
REMARK   90  A    between atoms: _219  and  _222
REMARK   91  A    between atoms: _222  and  _223
REMARK   92  A    between atoms: _225  and  _227
REMARK   93  A    between atoms: _227  and  _228
REMARK   94  A    between atoms: _227  and  _230
REMARK   95  A    between atoms: _230  and  _231
REMARK   96  A    between atoms: _237  and  _239
REMARK   97  A    between atoms: _239  and  _240
REMARK   98  A    between atoms: _243  and  _245
REMARK   99  A    between atoms: _245  and  _246
REMARK  100  A    between atoms: _245  and  _248
REMARK  101  A    between atoms: _248  and  _249
REMARK  102  A    between atoms: _249  and  _250
REMARK  103  A    between atoms: _250  and  _251
REMARK  104  A    between atoms: _260  and  _262
REMARK  105  A    between atoms: _262  and  _263
REMARK  106  A    between atoms: _262  and  _265
REMARK  107  A    between atoms: _265  and  _266
REMARK  108  A    between atoms: _269  and  _271
REMARK  109  A    between atoms: _271  and  _272
REMARK  110  A    between atoms: _271  and  _274
REMARK  111  A    between atoms: _274  and  _275
REMARK  112  A    between atoms: _278  and  _280
REMARK  113  A    between atoms: _280  and  _281
REMARK  114  A    between atoms: _280  and  _283
REMARK  115  A    between atoms: _283  and  _284
REMARK  116  A    between atoms: _287  and  _289
REMARK  117  A    between atoms: _289  and  _290
REMARK  118  A    between atoms: _289  and  _292
REMARK  119  A    between atoms: _295  and  _297
REMARK  120  A    between atoms: _297  and  _298
REMARK  121  A    between atoms: _297  and  _300
REMARK  122  A    between atoms: _303  and  _305
REMARK  123  A    between atoms: _305  and  _306
REMARK  124  A    between atoms: _308  and  _310
REMARK  125  A    between atoms: _310  and  _311
REMARK  126  A    between atoms: _310  and  _313
REMARK  127  A    between atoms: _313  and  _314
REMARK  128  A    between atoms: _318  and  ZN_601
REMARK  129  A    between atoms: _319  and  _321
REMARK  130  A    between atoms: _321  and  _322
REMARK  131  A    between atoms: _321  and  _324
REMARK  132  A    between atoms: _324  and  _325
REMARK  133  A    between atoms: _325  and  _326
REMARK  134  A    between atoms: _329  and  _331
REMARK  135  A    between atoms: _331  and  _332
REMARK  136  A    between atoms: _331  and  _334
REMARK  137  A    between atoms: _334  and  _335
REMARK  138  A    between atoms: _340  and  _341
REMARK  139  A    between atoms: _343  and  _345
REMARK  140  A    between atoms: _345  and  _346
REMARK  141  A    between atoms: _345  and  _348
REMARK  142  A    between atoms: _348  and  _349
REMARK  143  A    between atoms: _353  and  ZN_601
REMARK  144  A    between atoms: _354  and  _356
REMARK  145  A    between atoms: _356  and  _357
REMARK  146  A    between atoms: _356  and  _359
REMARK  147  A    between atoms: _359  and  _360
REMARK  148  A    between atoms: _365  and  _367
REMARK  149  A    between atoms: _367  and  _368
REMARK  150  A    between atoms: _367  and  _370
REMARK  151  A    between atoms: _370  and  _371
REMARK  152  A    between atoms: _381  and  _383
REMARK  153  A    between atoms: _383  and  _384
REMARK  154  A    between atoms: _383  and  _386
REMARK  155  A    between atoms: _386  and  _387
REMARK  156  A    between atoms: _390  and  _392
REMARK  157  A    between atoms: _392  and  _393
REMARK  158  A    between atoms: _392  and  _395
REMARK  159  A    between atoms: _395  and  _396
REMARK  160  A    between atoms: _396  and  _397
REMARK  161  A    between atoms: _397  and  _398
REMARK  162  A    between atoms: _398  and  _399
REMARK  163  A    between atoms: _403  and  _405
REMARK  164  A    between atoms: _405  and  _406
REMARK  165  A    between atoms: _405  and  _408
REMARK  166  A    between atoms: _408  and  _409
REMARK  167  A    between atoms: _409  and  _410
REMARK  168  A    between atoms: _410  and  _411
REMARK  169  A    between atoms: _411  and  ZN_601
REMARK  170  A    between atoms: _413  and  _415
REMARK  171  A    between atoms: _415  and  _416
REMARK  172  A    between atoms: _418  and  _420
REMARK  173  A    between atoms: _420  and  _421
REMARK  174  A    between atoms: _420  and  _423
REMARK  175  A    between atoms: _423  and  _424
REMARK  176  A    between atoms: _427  and  _429
REMARK  177  A    between atoms: _429  and  _430
REMARK  178  A    between atoms: _429  and  _432
REMARK  179  A    between atoms: _435  and  _437
REMARK  180  A    between atoms: _437  and  _438
REMARK  181  A    between atoms: _437  and  _440
REMARK  182  A    between atoms: _440  and  _441
REMARK  183  A    between atoms: _441  and  _442
REMARK  184  A    between atoms: _445  and  _447
REMARK  185  A    between atoms: _447  and  _448
REMARK  186  A    between atoms: _447  and  _450
REMARK  187  A    between atoms: _450  and  _451
REMARK  188  A    between atoms: _456  and  _458
REMARK  189  A    between atoms: _458  and  _459
REMARK  190  A    between atoms: _458  and  _461
REMARK  191  A    between atoms: _461  and  _462
REMARK  192  A    between atoms: _464  and  _466
REMARK  193  A    between atoms: _466  and  _467
REMARK  194  A    between atoms: _466  and  _469
REMARK  195  A    between atoms: _469  and  _470
REMARK  196  A    between atoms: _470  and  _471
REMARK  197  A    between atoms: _473  and  _475
REMARK  198  A    between atoms: _475  and  _476
REMARK  199  A    between atoms: _475  and  _478
REMARK  200  A    between atoms: _478  and  _479
REMARK  201  A    between atoms: _479  and  _480
REMARK  202  A    between atoms: _483  and  _485
REMARK  203  A    between atoms: _485  and  _486
REMARK  204  A    between atoms: _485  and  _488
REMARK  205  A    between atoms: _488  and  _489
REMARK  206  A    between atoms: _494  and  _496
REMARK  207  A    between atoms: _496  and  _497
REMARK  208  A    between atoms: _496  and  _499
REMARK  209  A    between atoms: _499  and  _500
REMARK  210  A    between atoms: _506  and  _508
REMARK  211  A    between atoms: _508  and  _509
REMARK  212  A    between atoms: _508  and  _511
REMARK  213  A    between atoms: _511  and  _512
REMARK  214  A    between atoms: _517  and  _518
REMARK  215  A    between atoms: _520  and  _522
REMARK  216  A    between atoms: _522  and  _523
REMARK  217  A    between atoms: _522  and  _525
REMARK  218  A    between atoms: _525  and  _526
REMARK  219  A    between atoms: _529  and  _531
REMARK  220  A    between atoms: _531  and  _532
REMARK  221  A    between atoms: _531  and  _534
REMARK  222  A    between atoms: _534  and  _535
REMARK  223  A    between atoms: _540  and  _541
REMARK  224  A    between atoms: _543  and  _545
REMARK  225  A    between atoms: _545  and  _546
REMARK  226  A    between atoms: _545  and  _548
REMARK  227  A    between atoms: _548  and  _549
REMARK  228  A    between atoms: _552  and  _554
REMARK  229  A    between atoms: _554  and  _555
REMARK  230  A    between atoms: _554  and  _557
REMARK  231  A    between atoms: _557  and  _558
REMARK  232  A    between atoms: _558  and  _559
REMARK  233  A    between atoms: _559  and  _560
REMARK  234  A    between atoms: _569  and  _571
REMARK  235  A    between atoms: _571  and  _572
REMARK  236  A    between atoms: _571  and  _574
REMARK  237  A    between atoms: _574  and  _575
REMARK  238  A    between atoms: _575  and  _576
REMARK  239  A    between atoms: _578  and  _580
REMARK  240  A    between atoms: _580  and  _581
REMARK  241  A    between atoms: _580  and  _583
REMARK  242  A    between atoms: _583  and  _584
REMARK  243  A    between atoms: _584  and  _585
REMARK  244  A    between atoms: _590  and  _592
REMARK  245  A    between atoms: _592  and  _593
REMARK  246  A    between atoms: _592  and  _595
REMARK  247  A    between atoms: _595  and  _596
REMARK                            x       y       z     vdW  Elec       q    Type
REMARK                         _______ _______ _______ _____ _____    ______ ____
ROOT
ATOM      1  O   HOH     1      14.238  12.395  24.027  0.00  0.00    +0.000 OA
ENDROOT
TORSDOF 0
REMARK  Name = ../refined-set-2016/3ebi/3ebi_pocket.pdb
REMARK  247 active torsions:
REMARK  status: ('A' for Active; 'I' for Inactive)
REMARK    1  A    between atoms: _1  and  _3
REMARK    2  A    between atoms: _3  and  _4
REMARK    3  A    between atoms: _7  and  _9
REMARK    4  A    between atoms: _9  and  _10
REMARK    5  A    between atoms: _9  and  _12
REMARK    6  A    between atoms: _12  and  _13
REMARK    7  A    between atoms: _16  and  _18
REMARK    8  A    between atoms: _18  and  _19
REMARK    9  A    between atoms: _18  and  _21
REMARK   10  A    between atoms: _21  and  _22
REMARK   11  A    between atoms: _25  and  _27
REMARK   12  A    between atoms: _27  and  _28
REMARK   13  A    between atoms: _30  and  _32
REMARK   14  A    between atoms: _32  and  _33
REMARK   15  A    between atoms: _32  and  _35
REMARK   16  A    between atoms: _35  and  _36
REMARK   17  A    between atoms: _36  and  _37
REMARK   18  A    between atoms: _42  and  _44
REMARK   19  A    between atoms: _44  and  _45
REMARK   20  A    between atoms: _44  and  _47
REMARK   21  A    between atoms: _49  and  _51
REMARK   22  A    between atoms: _51  and  _52
REMARK   23  A    between atoms: _51  and  _54
REMARK   24  A    between atoms: _54  and  _55
REMARK   25  A    between atoms: _55  and  _56
REMARK   26  A    between atoms: _59  and  _61
REMARK   27  A    between atoms: _61  and  _62
REMARK   28  A    between atoms: _65  and  _67
REMARK   29  A    between atoms: _67  and  _68
REMARK   30  A    between atoms: _67  and  _70
REMARK   31  A    between atoms: _70  and  _71
REMARK   32  A    between atoms: _74  and  _76
REMARK   33  A    between atoms: _76  and  _77
REMARK   34  A    between atoms: _79  and  _81
REMARK   35  A    between atoms: _81  and  _82
REMARK   36  A    between atoms: _81  and  _84
REMARK   37  A    between atoms: _84  and  _85
REMARK   38  A    between atoms: _90  and  _91
REMARK   39  A    between atoms: _93  and  _95
REMARK   40  A    between atoms: _95  and  _96
REMARK   41  A    between atoms: _95  and  _98
REMARK   42  A    between atoms: _98  and  _99
REMARK   43  A    between atoms: _102  and  _104
REMARK   44  A    between atoms: _104  and  _105
REMARK   45  A    between atoms: _104  and  _107
REMARK   46  A    between atoms: _107  and  _108
REMARK   47  A    between atoms: _114  and  _116
REMARK   48  A    between atoms: _116  and  _117
REMARK   49  A    between atoms: _116  and  _119
REMARK   50  A    between atoms: _119  and  _120
REMARK   51  A    between atoms: _125  and  _127
REMARK   52  A    between atoms: _127  and  _128
REMARK   53  A    between atoms: _127  and  _130
REMARK   54  A    between atoms: _133  and  _135
REMARK   55  A    between atoms: _135  and  _136
REMARK   56  A    between atoms: _138  and  _140
REMARK   57  A    between atoms: _140  and  _141
REMARK   58  A    between atoms: _144  and  _146
REMARK   59  A    between atoms: _146  and  _147
REMARK   60  A    between atoms: _146  and  _149
REMARK   61  A    between atoms: _149  and  _150
REMARK   62  A    between atoms: _150  and  _151
REMARK   63  A    between atoms: _153  and  _155
REMARK   64  A    between atoms: _155  and  _156
REMARK   65  A    between atoms: _155  and  _158
REMARK   66  A    between atoms: _158  and  _159
REMARK   67  A    between atoms: _159  and  _160
REMARK   68  A    between atoms: _163  and  _165
REMARK   69  A    between atoms: _165  and  _166
REMARK   70  A    between atoms: _165  and  _168
REMARK   71  A    between atoms: _168  and  _169
REMARK   72  A    between atoms: _174  and  _176
REMARK   73  A    between atoms: _176  and  _177
REMARK   74  A    between atoms: _176  and  _179
REMARK   75  A    between atoms: _179  and  _180
REMARK   76  A    between atoms: _183  and  _185
REMARK   77  A    between atoms: _185  and  _186
REMARK   78  A    between atoms: _185  and  _188
REMARK   79  A    between atoms: _188  and  _189
REMARK   80  A    between atoms: _195  and  _197
REMARK   81  A    between atoms: _197  and  _198
REMARK   82  A    between atoms: _197  and  _200
REMARK   83  A    between atoms: _200  and  _201
REMARK   84  A    between atoms: _206  and  _208
REMARK   85  A    between atoms: _208  and  _209
REMARK   86  A    between atoms: _208  and  _211
REMARK   87  A    between atoms: _211  and  _212
REMARK   88  A    between atoms: _217  and  _219
REMARK   89  A    between atoms: _219  and  _220
REMARK   90  A    between atoms: _219  and  _222
REMARK   91  A    between atoms: _222  and  _223
REMARK   92  A    between atoms: _225  and  _227
REMARK   93  A    between atoms: _227  and  _228
REMARK   94  A    between atoms: _227  and  _230
REMARK   95  A    between atoms: _230  and  _231
REMARK   96  A    between atoms: _237  and  _239
REMARK   97  A    between atoms: _239  and  _240
REMARK   98  A    between atoms: _243  and  _245
REMARK   99  A    between atoms: _245  and  _246
REMARK  100  A    between atoms: _245  and  _248
REMARK  101  A    between atoms: _248  and  _249
REMARK  102  A    between atoms: _249  and  _250
REMARK  103  A    between atoms: _250  and  _251
REMARK  104  A    between atoms: _260  and  _262
REMARK  105  A    between atoms: _262  and  _263
REMARK  106  A    between atoms: _262  and  _265
REMARK  107  A    between atoms: _265  and  _266
REMARK  108  A    between atoms: _269  and  _271
REMARK  109  A    between atoms: _271  and  _272
REMARK  110  A    between atoms: _271  and  _274
REMARK  111  A    between atoms: _274  and  _275
REMARK  112  A    between atoms: _278  and  _280
REMARK  113  A    between atoms: _280  and  _281
REMARK  114  A    between atoms: _280  and  _283
REMARK  115  A    between atoms: _283  and  _284
REMARK  116  A    between atoms: _287  and  _289
REMARK  117  A    between atoms: _289  and  _290
REMARK  118  A    between atoms: _289  and  _292
REMARK  119  A    between atoms: _295  and  _297
REMARK  120  A    between atoms: _297  and  _298
REMARK  121  A    between atoms: _297  and  _300
REMARK  122  A    between atoms: _303  and  _305
REMARK  123  A    between atoms: _305  and  _306
REMARK  124  A    between atoms: _308  and  _310
REMARK  125  A    between atoms: _310  and  _311
REMARK  126  A    between atoms: _310  and  _313
REMARK  127  A    between atoms: _313  and  _314
REMARK  128  A    between atoms: _318  and  ZN_601
REMARK  129  A    between atoms: _319  and  _321
REMARK  130  A    between atoms: _321  and  _322
REMARK  131  A    between atoms: _321  and  _324
REMARK  132  A    between atoms: _324  and  _325
REMARK  133  A    between atoms: _325  and  _326
REMARK  134  A    between atoms: _329  and  _331
REMARK  135  A    between atoms: _331  and  _332
REMARK  136  A    between atoms: _331  and  _334
REMARK  137  A    between atoms: _334  and  _335
REMARK  138  A    between atoms: _340  and  _341
REMARK  139  A    between atoms: _343  and  _345
REMARK  140  A    between atoms: _345  and  _346
REMARK  141  A    between atoms: _345  and  _348
REMARK  142  A    between atoms: _348  and  _349
REMARK  143  A    between atoms: _353  and  ZN_601
REMARK  144  A    between atoms: _354  and  _356
REMARK  145  A    between atoms: _356  and  _357
REMARK  146  A    between atoms: _356  and  _359
REMARK  147  A    between atoms: _359  and  _360
REMARK  148  A    between atoms: _365  and  _367
REMARK  149  A    between atoms: _367  and  _368
REMARK  150  A    between atoms: _367  and  _370
REMARK  151  A    between atoms: _370  and  _371
REMARK  152  A    between atoms: _381  and  _383
REMARK  153  A    between atoms: _383  and  _384
REMARK  154  A    between atoms: _383  and  _386
REMARK  155  A    between atoms: _386  and  _387
REMARK  156  A    between atoms: _390  and  _392
REMARK  157  A    between atoms: _392  and  _393
REMARK  158  A    between atoms: _392  and  _395
REMARK  159  A    between atoms: _395  and  _396
REMARK  160  A    between atoms: _396  and  _397
REMARK  161  A    between atoms: _397  and  _398
REMARK  162  A    between atoms: _398  and  _399
REMARK  163  A    between atoms: _403  and  _405
REMARK  164  A    between atoms: _405  and  _406
REMARK  165  A    between atoms: _405  and  _408
REMARK  166  A    between atoms: _408  and  _409
REMARK  167  A    between atoms: _409  and  _410
REMARK  168  A    between atoms: _410  and  _411
REMARK  169  A    between atoms: _411  and  ZN_601
REMARK  170  A    between atoms: _413  and  _415
REMARK  171  A    between atoms: _415  and  _416
REMARK  172  A    between atoms: _418  and  _420
REMARK  173  A    between atoms: _420  and  _421
REMARK  174  A    between atoms: _420  and  _423
REMARK  175  A    between atoms: _423  and  _424
REMARK  176  A    between atoms: _427  and  _429
REMARK  177  A    between atoms: _429  and  _430
REMARK  178  A    between atoms: _429  and  _432
REMARK  179  A    between atoms: _435  and  _437
REMARK  180  A    between atoms: _437  and  _438
REMARK  181  A    between atoms: _437  and  _440
REMARK  182  A    between atoms: _440  and  _441
REMARK  183  A    between atoms: _441  and  _442
REMARK  184  A    between atoms: _445  and  _447
REMARK  185  A    between atoms: _447  and  _448
REMARK  186  A    between atoms: _447  and  _450
REMARK  187  A    between atoms: _450  and  _451
REMARK  188  A    between atoms: _456  and  _458
REMARK  189  A    between atoms: _458  and  _459
REMARK  190  A    between atoms: _458  and  _461
REMARK  191  A    between atoms: _461  and  _462
REMARK  192  A    between atoms: _464  and  _466
REMARK  193  A    between atoms: _466  and  _467
REMARK  194  A    between atoms: _466  and  _469
REMARK  195  A    between atoms: _469  and  _470
REMARK  196  A    between atoms: _470  and  _471
REMARK  197  A    between atoms: _473  and  _475
REMARK  198  A    between atoms: _475  and  _476
REMARK  199  A    between atoms: _475  and  _478
REMARK  200  A    between atoms: _478  and  _479
REMARK  201  A    between atoms: _479  and  _480
REMARK  202  A    between atoms: _483  and  _485
REMARK  203  A    between atoms: _485  and  _486
REMARK  204  A    between atoms: _485  and  _488
REMARK  205  A    between atoms: _488  and  _489
REMARK  206  A    between atoms: _494  and  _496
REMARK  207  A    between atoms: _496  and  _497
REMARK  208  A    between atoms: _496  and  _499
REMARK  209  A    between atoms: _499  and  _500
REMARK  210  A    between atoms: _506  and  _508
REMARK  211  A    between atoms: _508  and  _509
REMARK  212  A    between atoms: _508  and  _511
REMARK  213  A    between atoms: _511  and  _512
REMARK  214  A    between atoms: _517  and  _518
REMARK  215  A    between atoms: _520  and  _522
REMARK  216  A    between atoms: _522  and  _523
REMARK  217  A    between atoms: _522  and  _525
REMARK  218  A    between atoms: _525  and  _526
REMARK  219  A    between atoms: _529  and  _531
REMARK  220  A    between atoms: _531  and  _532
REMARK  221  A    between atoms: _531  and  _534
REMARK  222  A    between atoms: _534  and  _535
REMARK  223  A    between atoms: _540  and  _541
REMARK  224  A    between atoms: _543  and  _545
REMARK  225  A    between atoms: _545  and  _546
REMARK  226  A    between atoms: _545  and  _548
REMARK  227  A    between atoms: _548  and  _549
REMARK  228  A    between atoms: _552  and  _554
REMARK  229  A    between atoms: _554  and  _555
REMARK  230  A    between atoms: _554  and  _557
REMARK  231  A    between atoms: _557  and  _558
REMARK  232  A    between atoms: _558  and  _559
REMARK  233  A    between atoms: _559  and  _560
REMARK  234  A    between atoms: _569  and  _571
REMARK  235  A    between atoms: _571  and  _572
REMARK  236  A    between atoms: _571  and  _574
REMARK  237  A    between atoms: _574  and  _575
REMARK  238  A    between atoms: _575  and  _576
REMARK  239  A    between atoms: _578  and  _580
REMARK  240  A    between atoms: _580  and  _581
REMARK  241  A    between atoms: _580  and  _583
REMARK  242  A    between atoms: _583  and  _584
REMARK  243  A    between atoms: _584  and  _585
REMARK  244  A    between atoms: _590  and  _592
REMARK  245  A    between atoms: _592  and  _593
REMARK  246  A    between atoms: _592  and  _595
REMARK  247  A    between atoms: _595  and  _596
REMARK                            x       y       z     vdW  Elec       q    Type
REMARK                         _______ _______ _______ _____ _____    ______ ____
ROOT
ATOM      1  O   HOH     1      15.034  13.984  21.393  0.00  0.00    +0.000 OA
ENDROOT
TORSDOF 0
REMARK  Name = ../refined-set-2016/3ebi/3ebi_pocket.pdb
REMARK  247 active torsions:
REMARK  status: ('A' for Active; 'I' for Inactive)
REMARK    1  A    between atoms: _1  and  _3
REMARK    2  A    between atoms: _3  and  _4
REMARK    3  A    between atoms: _7  and  _9
REMARK    4  A    between atoms: _9  and  _10
REMARK    5  A    between atoms: _9  and  _12
REMARK    6  A    between atoms: _12  and  _13
REMARK    7  A    between atoms: _16  and  _18
REMARK    8  A    between atoms: _18  and  _19
REMARK    9  A    between atoms: _18  and  _21
REMARK   10  A    between atoms: _21  and  _22
REMARK   11  A    between atoms: _25  and  _27
REMARK   12  A    between atoms: _27  and  _28
REMARK   13  A    between atoms: _30  and  _32
REMARK   14  A    between atoms: _32  and  _33
REMARK   15  A    between atoms: _32  and  _35
REMARK   16  A    between atoms: _35  and  _36
REMARK   17  A    between atoms: _36  and  _37
REMARK   18  A    between atoms: _42  and  _44
REMARK   19  A    between atoms: _44  and  _45
REMARK   20  A    between atoms: _44  and  _47
REMARK   21  A    between atoms: _49  and  _51
REMARK   22  A    between atoms: _51  and  _52
REMARK   23  A    between atoms: _51  and  _54
REMARK   24  A    between atoms: _54  and  _55
REMARK   25  A    between atoms: _55  and  _56
REMARK   26  A    between atoms: _59  and  _61
REMARK   27  A    between atoms: _61  and  _62
REMARK   28  A    between atoms: _65  and  _67
REMARK   29  A    between atoms: _67  and  _68
REMARK   30  A    between atoms: _67  and  _70
REMARK   31  A    between atoms: _70  and  _71
REMARK   32  A    between atoms: _74  and  _76
REMARK   33  A    between atoms: _76  and  _77
REMARK   34  A    between atoms: _79  and  _81
REMARK   35  A    between atoms: _81  and  _82
REMARK   36  A    between atoms: _81  and  _84
REMARK   37  A    between atoms: _84  and  _85
REMARK   38  A    between atoms: _90  and  _91
REMARK   39  A    between atoms: _93  and  _95
REMARK   40  A    between atoms: _95  and  _96
REMARK   41  A    between atoms: _95  and  _98
REMARK   42  A    between atoms: _98  and  _99
REMARK   43  A    between atoms: _102  and  _104
REMARK   44  A    between atoms: _104  and  _105
REMARK   45  A    between atoms: _104  and  _107
REMARK   46  A    between atoms: _107  and  _108
REMARK   47  A    between atoms: _114  and  _116
REMARK   48  A    between atoms: _116  and  _117
REMARK   49  A    between atoms: _116  and  _119
REMARK   50  A    between atoms: _119  and  _120
REMARK   51  A    between atoms: _125  and  _127
REMARK   52  A    between atoms: _127  and  _128
REMARK   53  A    between atoms: _127  and  _130
REMARK   54  A    between atoms: _133  and  _135
REMARK   55  A    between atoms: _135  and  _136
REMARK   56  A    between atoms: _138  and  _140
REMARK   57  A    between atoms: _140  and  _141
REMARK   58  A    between atoms: _144  and  _146
REMARK   59  A    between atoms: _146  and  _147
REMARK   60  A    between atoms: _146  and  _149
REMARK   61  A    between atoms: _149  and  _150
REMARK   62  A    between atoms: _150  and  _151
REMARK   63  A    between atoms: _153  and  _155
REMARK   64  A    between atoms: _155  and  _156
REMARK   65  A    between atoms: _155  and  _158
REMARK   66  A    between atoms: _158  and  _159
REMARK   67  A    between atoms: _159  and  _160
REMARK   68  A    between atoms: _163  and  _165
REMARK   69  A    between atoms: _165  and  _166
REMARK   70  A    between atoms: _165  and  _168
REMARK   71  A    between atoms: _168  and  _169
REMARK   72  A    between atoms: _174  and  _176
REMARK   73  A    between atoms: _176  and  _177
REMARK   74  A    between atoms: _176  and  _179
REMARK   75  A    between atoms: _179  and  _180
REMARK   76  A    between atoms: _183  and  _185
REMARK   77  A    between atoms: _185  and  _186
REMARK   78  A    between atoms: _185  and  _188
REMARK   79  A    between atoms: _188  and  _189
REMARK   80  A    between atoms: _195  and  _197
REMARK   81  A    between atoms: _197  and  _198
REMARK   82  A    between atoms: _197  and  _200
REMARK   83  A    between atoms: _200  and  _201
REMARK   84  A    between atoms: _206  and  _208
REMARK   85  A    between atoms: _208  and  _209
REMARK   86  A    between atoms: _208  and  _211
REMARK   87  A    between atoms: _211  and  _212
REMARK   88  A    between atoms: _217  and  _219
REMARK   89  A    between atoms: _219  and  _220
REMARK   90  A    between atoms: _219  and  _222
REMARK   91  A    between atoms: _222  and  _223
REMARK   92  A    between atoms: _225  and  _227
REMARK   93  A    between atoms: _227  and  _228
REMARK   94  A    between atoms: _227  and  _230
REMARK   95  A    between atoms: _230  and  _231
REMARK   96  A    between atoms: _237  and  _239
REMARK   97  A    between atoms: _239  and  _240
REMARK   98  A    between atoms: _243  and  _245
REMARK   99  A    between atoms: _245  and  _246
REMARK  100  A    between atoms: _245  and  _248
REMARK  101  A    between atoms: _248  and  _249
REMARK  102  A    between atoms: _249  and  _250
REMARK  103  A    between atoms: _250  and  _251
REMARK  104  A    between atoms: _260  and  _262
REMARK  105  A    between atoms: _262  and  _263
REMARK  106  A    between atoms: _262  and  _265
REMARK  107  A    between atoms: _265  and  _266
REMARK  108  A    between atoms: _269  and  _271
REMARK  109  A    between atoms: _271  and  _272
REMARK  110  A    between atoms: _271  and  _274
REMARK  111  A    between atoms: _274  and  _275
REMARK  112  A    between atoms: _278  and  _280
REMARK  113  A    between atoms: _280  and  _281
REMARK  114  A    between atoms: _280  and  _283
REMARK  115  A    between atoms: _283  and  _284
REMARK  116  A    between atoms: _287  and  _289
REMARK  117  A    between atoms: _289  and  _290
REMARK  118  A    between atoms: _289  and  _292
REMARK  119  A    between atoms: _295  and  _297
REMARK  120  A    between atoms: _297  and  _298
REMARK  121  A    between atoms: _297  and  _300
REMARK  122  A    between atoms: _303  and  _305
REMARK  123  A    between atoms: _305  and  _306
REMARK  124  A    between atoms: _308  and  _310
REMARK  125  A    between atoms: _310  and  _311
REMARK  126  A    between atoms: _310  and  _313
REMARK  127  A    between atoms: _313  and  _314
REMARK  128  A    between atoms: _318  and  ZN_601
REMARK  129  A    between atoms: _319  and  _321
REMARK  130  A    between atoms: _321  and  _322
REMARK  131  A    between atoms: _321  and  _324
REMARK  132  A    between atoms: _324  and  _325
REMARK  133  A    between atoms: _325  and  _326
REMARK  134  A    between atoms: _329  and  _331
REMARK  135  A    between atoms: _331  and  _332
REMARK  136  A    between atoms: _331  and  _334
REMARK  137  A    between atoms: _334  and  _335
REMARK  138  A    between atoms: _340  and  _341
REMARK  139  A    between atoms: _343  and  _345
REMARK  140  A    between atoms: _345  and  _346
REMARK  141  A    between atoms: _345  and  _348
REMARK  142  A    between atoms: _348  and  _349
REMARK  143  A    between atoms: _353  and  ZN_601
REMARK  144  A    between atoms: _354  and  _356
REMARK  145  A    between atoms: _356  and  _357
REMARK  146  A    between atoms: _356  and  _359
REMARK  147  A    between atoms: _359  and  _360
REMARK  148  A    between atoms: _365  and  _367
REMARK  149  A    between atoms: _367  and  _368
REMARK  150  A    between atoms: _367  and  _370
REMARK  151  A    between atoms: _370  and  _371
REMARK  152  A    between atoms: _381  and  _383
REMARK  153  A    between atoms: _383  and  _384
REMARK  154  A    between atoms: _383  and  _386
REMARK  155  A    between atoms: _386  and  _387
REMARK  156  A    between atoms: _390  and  _392
REMARK  157  A    between atoms: _392  and  _393
REMARK  158  A    between atoms: _392  and  _395
REMARK  159  A    between atoms: _395  and  _396
REMARK  160  A    between atoms: _396  and  _397
REMARK  161  A    between atoms: _397  and  _398
REMARK  162  A    between atoms: _398  and  _399
REMARK  163  A    between atoms: _403  and  _405
REMARK  164  A    between atoms: _405  and  _406
REMARK  165  A    between atoms: _405  and  _408
REMARK  166  A    between atoms: _408  and  _409
REMARK  167  A    between atoms: _409  and  _410
REMARK  168  A    between atoms: _410  and  _411
REMARK  169  A    between atoms: _411  and  ZN_601
REMARK  170  A    between atoms: _413  and  _415
REMARK  171  A    between atoms: _415  and  _416
REMARK  172  A    between atoms: _418  and  _420
REMARK  173  A    between atoms: _420  and  _421
REMARK  174  A    between atoms: _420  and  _423
REMARK  175  A    between atoms: _423  and  _424
REMARK  176  A    between atoms: _427  and  _429
REMARK  177  A    between atoms: _429  and  _430
REMARK  178  A    between atoms: _429  and  _432
REMARK  179  A    between atoms: _435  and  _437
REMARK  180  A    between atoms: _437  and  _438
REMARK  181  A    between atoms: _437  and  _440
REMARK  182  A    between atoms: _440  and  _441
REMARK  183  A    between atoms: _441  and  _442
REMARK  184  A    between atoms: _445  and  _447
REMARK  185  A    between atoms: _447  and  _448
REMARK  186  A    between atoms: _447  and  _450
REMARK  187  A    between atoms: _450  and  _451
REMARK  188  A    between atoms: _456  and  _458
REMARK  189  A    between atoms: _458  and  _459
REMARK  190  A    between atoms: _458  and  _461
REMARK  191  A    between atoms: _461  and  _462
REMARK  192  A    between atoms: _464  and  _466
REMARK  193  A    between atoms: _466  and  _467
REMARK  194  A    between atoms: _466  and  _469
REMARK  195  A    between atoms: _469  and  _470
REMARK  196  A    between atoms: _470  and  _471
REMARK  197  A    between atoms: _473  and  _475
REMARK  198  A    between atoms: _475  and  _476
REMARK  199  A    between atoms: _475  and  _478
REMARK  200  A    between atoms: _478  and  _479
REMARK  201  A    between atoms: _479  and  _480
REMARK  202  A    between atoms: _483  and  _485
REMARK  203  A    between atoms: _485  and  _486
REMARK  204  A    between atoms: _485  and  _488
REMARK  205  A    between atoms: _488  and  _489
REMARK  206  A    between atoms: _494  and  _496
REMARK  207  A    between atoms: _496  and  _497
REMARK  208  A    between atoms: _496  and  _499
REMARK  209  A    between atoms: _499  and  _500
REMARK  210  A    between atoms: _506  and  _508
REMARK  211  A    between atoms: _508  and  _509
REMARK  212  A    between atoms: _508  and  _511
REMARK  213  A    between atoms: _511  and  _512
REMARK  214  A    between atoms: _517  and  _518
REMARK  215  A    between atoms: _520  and  _522
REMARK  216  A    between atoms: _522  and  _523
REMARK  217  A    between atoms: _522  and  _525
REMARK  218  A    between atoms: _525  and  _526
REMARK  219  A    between atoms: _529  and  _531
REMARK  220  A    between atoms: _531  and  _532
REMARK  221  A    between atoms: _531  and  _534
REMARK  222  A    between atoms: _534  and  _535
REMARK  223  A    between atoms: _540  and  _541
REMARK  224  A    between atoms: _543  and  _545
REMARK  225  A    between atoms: _545  and  _546
REMARK  226  A    between atoms: _545  and  _548
REMARK  227  A    between atoms: _548  and  _549
REMARK  228  A    between atoms: _552  and  _554
REMARK  229  A    between atoms: _554  and  _555
REMARK  230  A    between atoms: _554  and  _557
REMARK  231  A    between atoms: _557  and  _558
REMARK  232  A    between atoms: _558  and  _559
REMARK  233  A    between atoms: _559  and  _560
REMARK  234  A    between atoms: _569  and  _571
REMARK  235  A    between atoms: _571  and  _572
REMARK  236  A    between atoms: _571  and  _574
REMARK  237  A    between atoms: _574  and  _575
REMARK  238  A    between atoms: _575  and  _576
REMARK  239  A    between atoms: _578  and  _580
REMARK  240  A    between atoms: _580  and  _581
REMARK  241  A    between atoms: _580  and  _583
REMARK  242  A    between atoms: _583  and  _584
REMARK  243  A    between atoms: _584  and  _585
REMARK  244  A    between atoms: _590  and  _592
REMARK  245  A    between atoms: _592  and  _593
REMARK  246  A    between atoms: _592  and  _595
REMARK  247  A    between atoms: _595  and  _596
REMARK                            x       y       z     vdW  Elec       q    Type
REMARK                         _______ _______ _______ _____ _____    ______ ____
ROOT
ATOM      1  O   HOH     1      20.211   5.712  10.860  0.00  0.00    +0.000 OA
ENDROOT
TORSDOF 0
REMARK  Name = ../refined-set-2016/3ebi/3ebi_pocket.pdb
REMARK  247 active torsions:
REMARK  status: ('A' for Active; 'I' for Inactive)
REMARK    1  A    between atoms: _1  and  _3
REMARK    2  A    between atoms: _3  and  _4
REMARK    3  A    between atoms: _7  and  _9
REMARK    4  A    between atoms: _9  and  _10
REMARK    5  A    between atoms: _9  and  _12
REMARK    6  A    between atoms: _12  and  _13
REMARK    7  A    between atoms: _16  and  _18
REMARK    8  A    between atoms: _18  and  _19
REMARK    9  A    between atoms: _18  and  _21
REMARK   10  A    between atoms: _21  and  _22
REMARK   11  A    between atoms: _25  and  _27
REMARK   12  A    between atoms: _27  and  _28
REMARK   13  A    between atoms: _30  and  _32
REMARK   14  A    between atoms: _32  and  _33
REMARK   15  A    between atoms: _32  and  _35
REMARK   16  A    between atoms: _35  and  _36
REMARK   17  A    between atoms: _36  and  _37
REMARK   18  A    between atoms: _42  and  _44
REMARK   19  A    between atoms: _44  and  _45
REMARK   20  A    between atoms: _44  and  _47
REMARK   21  A    between atoms: _49  and  _51
REMARK   22  A    between atoms: _51  and  _52
REMARK   23  A    between atoms: _51  and  _54
REMARK   24  A    between atoms: _54  and  _55
REMARK   25  A    between atoms: _55  and  _56
REMARK   26  A    between atoms: _59  and  _61
REMARK   27  A    between atoms: _61  and  _62
REMARK   28  A    between atoms: _65  and  _67
REMARK   29  A    between atoms: _67  and  _68
REMARK   30  A    between atoms: _67  and  _70
REMARK   31  A    between atoms: _70  and  _71
REMARK   32  A    between atoms: _74  and  _76
REMARK   33  A    between atoms: _76  and  _77
REMARK   34  A    between atoms: _79  and  _81
REMARK   35  A    between atoms: _81  and  _82
REMARK   36  A    between atoms: _81  and  _84
REMARK   37  A    between atoms: _84  and  _85
REMARK   38  A    between atoms: _90  and  _91
REMARK   39  A    between atoms: _93  and  _95
REMARK   40  A    between atoms: _95  and  _96
REMARK   41  A    between atoms: _95  and  _98
REMARK   42  A    between atoms: _98  and  _99
REMARK   43  A    between atoms: _102  and  _104
REMARK   44  A    between atoms: _104  and  _105
REMARK   45  A    between atoms: _104  and  _107
REMARK   46  A    between atoms: _107  and  _108
REMARK   47  A    between atoms: _114  and  _116
REMARK   48  A    between atoms: _116  and  _117
REMARK   49  A    between atoms: _116  and  _119
REMARK   50  A    between atoms: _119  and  _120
REMARK   51  A    between atoms: _125  and  _127
REMARK   52  A    between atoms: _127  and  _128
REMARK   53  A    between atoms: _127  and  _130
REMARK   54  A    between atoms: _133  and  _135
REMARK   55  A    between atoms: _135  and  _136
REMARK   56  A    between atoms: _138  and  _140
REMARK   57  A    between atoms: _140  and  _141
REMARK   58  A    between atoms: _144  and  _146
REMARK   59  A    between atoms: _146  and  _147
REMARK   60  A    between atoms: _146  and  _149
REMARK   61  A    between atoms: _149  and  _150
REMARK   62  A    between atoms: _150  and  _151
REMARK   63  A    between atoms: _153  and  _155
REMARK   64  A    between atoms: _155  and  _156
REMARK   65  A    between atoms: _155  and  _158
REMARK   66  A    between atoms: _158  and  _159
REMARK   67  A    between atoms: _159  and  _160
REMARK   68  A    between atoms: _163  and  _165
REMARK   69  A    between atoms: _165  and  _166
REMARK   70  A    between atoms: _165  and  _168
REMARK   71  A    between atoms: _168  and  _169
REMARK   72  A    between atoms: _174  and  _176
REMARK   73  A    between atoms: _176  and  _177
REMARK   74  A    between atoms: _176  and  _179
REMARK   75  A    between atoms: _179  and  _180
REMARK   76  A    between atoms: _183  and  _185
REMARK   77  A    between atoms: _185  and  _186
REMARK   78  A    between atoms: _185  and  _188
REMARK   79  A    between atoms: _188  and  _189
REMARK   80  A    between atoms: _195  and  _197
REMARK   81  A    between atoms: _197  and  _198
REMARK   82  A    between atoms: _197  and  _200
REMARK   83  A    between atoms: _200  and  _201
REMARK   84  A    between atoms: _206  and  _208
REMARK   85  A    between atoms: _208  and  _209
REMARK   86  A    between atoms: _208  and  _211
REMARK   87  A    between atoms: _211  and  _212
REMARK   88  A    between atoms: _217  and  _219
REMARK   89  A    between atoms: _219  and  _220
REMARK   90  A    between atoms: _219  and  _222
REMARK   91  A    between atoms: _222  and  _223
REMARK   92  A    between atoms: _225  and  _227
REMARK   93  A    between atoms: _227  and  _228
REMARK   94  A    between atoms: _227  and  _230
REMARK   95  A    between atoms: _230  and  _231
REMARK   96  A    between atoms: _237  and  _239
REMARK   97  A    between atoms: _239  and  _240
REMARK   98  A    between atoms: _243  and  _245
REMARK   99  A    between atoms: _245  and  _246
REMARK  100  A    between atoms: _245  and  _248
REMARK  101  A    between atoms: _248  and  _249
REMARK  102  A    between atoms: _249  and  _250
REMARK  103  A    between atoms: _250  and  _251
REMARK  104  A    between atoms: _260  and  _262
REMARK  105  A    between atoms: _262  and  _263
REMARK  106  A    between atoms: _262  and  _265
REMARK  107  A    between atoms: _265  and  _266
REMARK  108  A    between atoms: _269  and  _271
REMARK  109  A    between atoms: _271  and  _272
REMARK  110  A    between atoms: _271  and  _274
REMARK  111  A    between atoms: _274  and  _275
REMARK  112  A    between atoms: _278  and  _280
REMARK  113  A    between atoms: _280  and  _281
REMARK  114  A    between atoms: _280  and  _283
REMARK  115  A    between atoms: _283  and  _284
REMARK  116  A    between atoms: _287  and  _289
REMARK  117  A    between atoms: _289  and  _290
REMARK  118  A    between atoms: _289  and  _292
REMARK  119  A    between atoms: _295  and  _297
REMARK  120  A    between atoms: _297  and  _298
REMARK  121  A    between atoms: _297  and  _300
REMARK  122  A    between atoms: _303  and  _305
REMARK  123  A    between atoms: _305  and  _306
REMARK  124  A    between atoms: _308  and  _310
REMARK  125  A    between atoms: _310  and  _311
REMARK  126  A    between atoms: _310  and  _313
REMARK  127  A    between atoms: _313  and  _314
REMARK  128  A    between atoms: _318  and  ZN_601
REMARK  129  A    between atoms: _319  and  _321
REMARK  130  A    between atoms: _321  and  _322
REMARK  131  A    between atoms: _321  and  _324
REMARK  132  A    between atoms: _324  and  _325
REMARK  133  A    between atoms: _325  and  _326
REMARK  134  A    between atoms: _329  and  _331
REMARK  135  A    between atoms: _331  and  _332
REMARK  136  A    between atoms: _331  and  _334
REMARK  137  A    between atoms: _334  and  _335
REMARK  138  A    between atoms: _340  and  _341
REMARK  139  A    between atoms: _343  and  _345
REMARK  140  A    between atoms: _345  and  _346
REMARK  141  A    between atoms: _345  and  _348
REMARK  142  A    between atoms: _348  and  _349
REMARK  143  A    between atoms: _353  and  ZN_601
REMARK  144  A    between atoms: _354  and  _356
REMARK  145  A    between atoms: _356  and  _357
REMARK  146  A    between atoms: _356  and  _359
REMARK  147  A    between atoms: _359  and  _360
REMARK  148  A    between atoms: _365  and  _367
REMARK  149  A    between atoms: _367  and  _368
REMARK  150  A    between atoms: _367  and  _370
REMARK  151  A    between atoms: _370  and  _371
REMARK  152  A    between atoms: _381  and  _383
REMARK  153  A    between atoms: _383  and  _384
REMARK  154  A    between atoms: _383  and  _386
REMARK  155  A    between atoms: _386  and  _387
REMARK  156  A    between atoms: _390  and  _392
REMARK  157  A    between atoms: _392  and  _393
REMARK  158  A    between atoms: _392  and  _395
REMARK  159  A    between atoms: _395  and  _396
REMARK  160  A    between atoms: _396  and  _397
REMARK  161  A    between atoms: _397  and  _398
REMARK  162  A    between atoms: _398  and  _399
REMARK  163  A    between atoms: _403  and  _405
REMARK  164  A    between atoms: _405  and  _406
REMARK  165  A    between atoms: _405  and  _408
REMARK  166  A    between atoms: _408  and  _409
REMARK  167  A    between atoms: _409  and  _410
REMARK  168  A    between atoms: _410  and  _411
REMARK  169  A    between atoms: _411  and  ZN_601
REMARK  170  A    between atoms: _413  and  _415
REMARK  171  A    between atoms: _415  and  _416
REMARK  172  A    between atoms: _418  and  _420
REMARK  173  A    between atoms: _420  and  _421
REMARK  174  A    between atoms: _420  and  _423
REMARK  175  A    between atoms: _423  and  _424
REMARK  176  A    between atoms: _427  and  _429
REMARK  177  A    between atoms: _429  and  _430
REMARK  178  A    between atoms: _429  and  _432
REMARK  179  A    between atoms: _435  and  _437
REMARK  180  A    between atoms: _437  and  _438
REMARK  181  A    between atoms: _437  and  _440
REMARK  182  A    between atoms: _440  and  _441
REMARK  183  A    between atoms: _441  and  _442
REMARK  184  A    between atoms: _445  and  _447
REMARK  185  A    between atoms: _447  and  _448
REMARK  186  A    between atoms: _447  and  _450
REMARK  187  A    between atoms: _450  and  _451
REMARK  188  A    between atoms: _456  and  _458
REMARK  189  A    between atoms: _458  and  _459
REMARK  190  A    between atoms: _458  and  _461
REMARK  191  A    between atoms: _461  and  _462
REMARK  192  A    between atoms: _464  and  _466
REMARK  193  A    between atoms: _466  and  _467
REMARK  194  A    between atoms: _466  and  _469
REMARK  195  A    between atoms: _469  and  _470
REMARK  196  A    between atoms: _470  and  _471
REMARK  197  A    between atoms: _473  and  _475
REMARK  198  A    between atoms: _475  and  _476
REMARK  199  A    between atoms: _475  and  _478
REMARK  200  A    between atoms: _478  and  _479
REMARK  201  A    between atoms: _479  and  _480
REMARK  202  A    between atoms: _483  and  _485
REMARK  203  A    between atoms: _485  and  _486
REMARK  204  A    between atoms: _485  and  _488
REMARK  205  A    between atoms: _488  and  _489
REMARK  206  A    between atoms: _494  and  _496
REMARK  207  A    between atoms: _496  and  _497
REMARK  208  A    between atoms: _496  and  _499
REMARK  209  A    between atoms: _499  and  _500
REMARK  210  A    between atoms: _506  and  _508
REMARK  211  A    between atoms: _508  and  _509
REMARK  212  A    between atoms: _508  and  _511
REMARK  213  A    between atoms: _511  and  _512
REMARK  214  A    between atoms: _517  and  _518
REMARK  215  A    between atoms: _520  and  _522
REMARK  216  A    between atoms: _522  and  _523
REMARK  217  A    between atoms: _522  and  _525
REMARK  218  A    between atoms: _525  and  _526
REMARK  219  A    between atoms: _529  and  _531
REMARK  220  A    between atoms: _531  and  _532
REMARK  221  A    between atoms: _531  and  _534
REMARK  222  A    between atoms: _534  and  _535
REMARK  223  A    between atoms: _540  and  _541
REMARK  224  A    between atoms: _543  and  _545
REMARK  225  A    between atoms: _545  and  _546
REMARK  226  A    between atoms: _545  and  _548
REMARK  227  A    between atoms: _548  and  _549
REMARK  228  A    between atoms: _552  and  _554
REMARK  229  A    between atoms: _554  and  _555
REMARK  230  A    between atoms: _554  and  _557
REMARK  231  A    between atoms: _557  and  _558
REMARK  232  A    between atoms: _558  and  _559
REMARK  233  A    between atoms: _559  and  _560
REMARK  234  A    between atoms: _569  and  _571
REMARK  235  A    between atoms: _571  and  _572
REMARK  236  A    between atoms: _571  and  _574
REMARK  237  A    between atoms: _574  and  _575
REMARK  238  A    between atoms: _575  and  _576
REMARK  239  A    between atoms: _578  and  _580
REMARK  240  A    between atoms: _580  and  _581
REMARK  241  A    between atoms: _580  and  _583
REMARK  242  A    between atoms: _583  and  _584
REMARK  243  A    between atoms: _584  and  _585
REMARK  244  A    between atoms: _590  and  _592
REMARK  245  A    between atoms: _592  and  _593
REMARK  246  A    between atoms: _592  and  _595
REMARK  247  A    between atoms: _595  and  _596
REMARK                            x       y       z     vdW  Elec       q    Type
REMARK                         _______ _______ _______ _____ _____    ______ ____
ROOT
ATOM      1  O   HOH     1      19.554   4.088   6.095  0.00  0.00    +0.000 OA
ENDROOT
TORSDOF 0
REMARK  Name = ../refined-set-2016/3ebi/3ebi_pocket.pdb
REMARK  247 active torsions:
REMARK  status: ('A' for Active; 'I' for Inactive)
REMARK    1  A    between atoms: _1  and  _3
REMARK    2  A    between atoms: _3  and  _4
REMARK    3  A    between atoms: _7  and  _9
REMARK    4  A    between atoms: _9  and  _10
REMARK    5  A    between atoms: _9  and  _12
REMARK    6  A    between atoms: _12  and  _13
REMARK    7  A    between atoms: _16  and  _18
REMARK    8  A    between atoms: _18  and  _19
REMARK    9  A    between atoms: _18  and  _21
REMARK   10  A    between atoms: _21  and  _22
REMARK   11  A    between atoms: _25  and  _27
REMARK   12  A    between atoms: _27  and  _28
REMARK   13  A    between atoms: _30  and  _32
REMARK   14  A    between atoms: _32  and  _33
REMARK   15  A    between atoms: _32  and  _35
REMARK   16  A    between atoms: _35  and  _36
REMARK   17  A    between atoms: _36  and  _37
REMARK   18  A    between atoms: _42  and  _44
REMARK   19  A    between atoms: _44  and  _45
REMARK   20  A    between atoms: _44  and  _47
REMARK   21  A    between atoms: _49  and  _51
REMARK   22  A    between atoms: _51  and  _52
REMARK   23  A    between atoms: _51  and  _54
REMARK   24  A    between atoms: _54  and  _55
REMARK   25  A    between atoms: _55  and  _56
REMARK   26  A    between atoms: _59  and  _61
REMARK   27  A    between atoms: _61  and  _62
REMARK   28  A    between atoms: _65  and  _67
REMARK   29  A    between atoms: _67  and  _68
REMARK   30  A    between atoms: _67  and  _70
REMARK   31  A    between atoms: _70  and  _71
REMARK   32  A    between atoms: _74  and  _76
REMARK   33  A    between atoms: _76  and  _77
REMARK   34  A    between atoms: _79  and  _81
REMARK   35  A    between atoms: _81  and  _82
REMARK   36  A    between atoms: _81  and  _84
REMARK   37  A    between atoms: _84  and  _85
REMARK   38  A    between atoms: _90  and  _91
REMARK   39  A    between atoms: _93  and  _95
REMARK   40  A    between atoms: _95  and  _96
REMARK   41  A    between atoms: _95  and  _98
REMARK   42  A    between atoms: _98  and  _99
REMARK   43  A    between atoms: _102  and  _104
REMARK   44  A    between atoms: _104  and  _105
REMARK   45  A    between atoms: _104  and  _107
REMARK   46  A    between atoms: _107  and  _108
REMARK   47  A    between atoms: _114  and  _116
REMARK   48  A    between atoms: _116  and  _117
REMARK   49  A    between atoms: _116  and  _119
REMARK   50  A    between atoms: _119  and  _120
REMARK   51  A    between atoms: _125  and  _127
REMARK   52  A    between atoms: _127  and  _128
REMARK   53  A    between atoms: _127  and  _130
REMARK   54  A    between atoms: _133  and  _135
REMARK   55  A    between atoms: _135  and  _136
REMARK   56  A    between atoms: _138  and  _140
REMARK   57  A    between atoms: _140  and  _141
REMARK   58  A    between atoms: _144  and  _146
REMARK   59  A    between atoms: _146  and  _147
REMARK   60  A    between atoms: _146  and  _149
REMARK   61  A    between atoms: _149  and  _150
REMARK   62  A    between atoms: _150  and  _151
REMARK   63  A    between atoms: _153  and  _155
REMARK   64  A    between atoms: _155  and  _156
REMARK   65  A    between atoms: _155  and  _158
REMARK   66  A    between atoms: _158  and  _159
REMARK   67  A    between atoms: _159  and  _160
REMARK   68  A    between atoms: _163  and  _165
REMARK   69  A    between atoms: _165  and  _166
REMARK   70  A    between atoms: _165  and  _168
REMARK   71  A    between atoms: _168  and  _169
REMARK   72  A    between atoms: _174  and  _176
REMARK   73  A    between atoms: _176  and  _177
REMARK   74  A    between atoms: _176  and  _179
REMARK   75  A    between atoms: _179  and  _180
REMARK   76  A    between atoms: _183  and  _185
REMARK   77  A    between atoms: _185  and  _186
REMARK   78  A    between atoms: _185  and  _188
REMARK   79  A    between atoms: _188  and  _189
REMARK   80  A    between atoms: _195  and  _197
REMARK   81  A    between atoms: _197  and  _198
REMARK   82  A    between atoms: _197  and  _200
REMARK   83  A    between atoms: _200  and  _201
REMARK   84  A    between atoms: _206  and  _208
REMARK   85  A    between atoms: _208  and  _209
REMARK   86  A    between atoms: _208  and  _211
REMARK   87  A    between atoms: _211  and  _212
REMARK   88  A    between atoms: _217  and  _219
REMARK   89  A    between atoms: _219  and  _220
REMARK   90  A    between atoms: _219  and  _222
REMARK   91  A    between atoms: _222  and  _223
REMARK   92  A    between atoms: _225  and  _227
REMARK   93  A    between atoms: _227  and  _228
REMARK   94  A    between atoms: _227  and  _230
REMARK   95  A    between atoms: _230  and  _231
REMARK   96  A    between atoms: _237  and  _239
REMARK   97  A    between atoms: _239  and  _240
REMARK   98  A    between atoms: _243  and  _245
REMARK   99  A    between atoms: _245  and  _246
REMARK  100  A    between atoms: _245  and  _248
REMARK  101  A    between atoms: _248  and  _249
REMARK  102  A    between atoms: _249  and  _250
REMARK  103  A    between atoms: _250  and  _251
REMARK  104  A    between atoms: _260  and  _262
REMARK  105  A    between atoms: _262  and  _263
REMARK  106  A    between atoms: _262  and  _265
REMARK  107  A    between atoms: _265  and  _266
REMARK  108  A    between atoms: _269  and  _271
REMARK  109  A    between atoms: _271  and  _272
REMARK  110  A    between atoms: _271  and  _274
REMARK  111  A    between atoms: _274  and  _275
REMARK  112  A    between atoms: _278  and  _280
REMARK  113  A    between atoms: _280  and  _281
REMARK  114  A    between atoms: _280  and  _283
REMARK  115  A    between atoms: _283  and  _284
REMARK  116  A    between atoms: _287  and  _289
REMARK  117  A    between atoms: _289  and  _290
REMARK  118  A    between atoms: _289  and  _292
REMARK  119  A    between atoms: _295  and  _297
REMARK  120  A    between atoms: _297  and  _298
REMARK  121  A    between atoms: _297  and  _300
REMARK  122  A    between atoms: _303  and  _305
REMARK  123  A    between atoms: _305  and  _306
REMARK  124  A    between atoms: _308  and  _310
REMARK  125  A    between atoms: _310  and  _311
REMARK  126  A    between atoms: _310  and  _313
REMARK  127  A    between atoms: _313  and  _314
REMARK  128  A    between atoms: _318  and  ZN_601
REMARK  129  A    between atoms: _319  and  _321
REMARK  130  A    between atoms: _321  and  _322
REMARK  131  A    between atoms: _321  and  _324
REMARK  132  A    between atoms: _324  and  _325
REMARK  133  A    between atoms: _325  and  _326
REMARK  134  A    between atoms: _329  and  _331
REMARK  135  A    between atoms: _331  and  _332
REMARK  136  A    between atoms: _331  and  _334
REMARK  137  A    between atoms: _334  and  _335
REMARK  138  A    between atoms: _340  and  _341
REMARK  139  A    between atoms: _343  and  _345
REMARK  140  A    between atoms: _345  and  _346
REMARK  141  A    between atoms: _345  and  _348
REMARK  142  A    between atoms: _348  and  _349
REMARK  143  A    between atoms: _353  and  ZN_601
REMARK  144  A    between atoms: _354  and  _356
REMARK  145  A    between atoms: _356  and  _357
REMARK  146  A    between atoms: _356  and  _359
REMARK  147  A    between atoms: _359  and  _360
REMARK  148  A    between atoms: _365  and  _367
REMARK  149  A    between atoms: _367  and  _368
REMARK  150  A    between atoms: _367  and  _370
REMARK  151  A    between atoms: _370  and  _371
REMARK  152  A    between atoms: _381  and  _383
REMARK  153  A    between atoms: _383  and  _384
REMARK  154  A    between atoms: _383  and  _386
REMARK  155  A    between atoms: _386  and  _387
REMARK  156  A    between atoms: _390  and  _392
REMARK  157  A    between atoms: _392  and  _393
REMARK  158  A    between atoms: _392  and  _395
REMARK  159  A    between atoms: _395  and  _396
REMARK  160  A    between atoms: _396  and  _397
REMARK  161  A    between atoms: _397  and  _398
REMARK  162  A    between atoms: _398  and  _399
REMARK  163  A    between atoms: _403  and  _405
REMARK  164  A    between atoms: _405  and  _406
REMARK  165  A    between atoms: _405  and  _408
REMARK  166  A    between atoms: _408  and  _409
REMARK  167  A    between atoms: _409  and  _410
REMARK  168  A    between atoms: _410  and  _411
REMARK  169  A    between atoms: _411  and  ZN_601
REMARK  170  A    between atoms: _413  and  _415
REMARK  171  A    between atoms: _415  and  _416
REMARK  172  A    between atoms: _418  and  _420
REMARK  173  A    between atoms: _420  and  _421
REMARK  174  A    between atoms: _420  and  _423
REMARK  175  A    between atoms: _423  and  _424
REMARK  176  A    between atoms: _427  and  _429
REMARK  177  A    between atoms: _429  and  _430
REMARK  178  A    between atoms: _429  and  _432
REMARK  179  A    between atoms: _435  and  _437
REMARK  180  A    between atoms: _437  and  _438
REMARK  181  A    between atoms: _437  and  _440
REMARK  182  A    between atoms: _440  and  _441
REMARK  183  A    between atoms: _441  and  _442
REMARK  184  A    between atoms: _445  and  _447
REMARK  185  A    between atoms: _447  and  _448
REMARK  186  A    between atoms: _447  and  _450
REMARK  187  A    between atoms: _450  and  _451
REMARK  188  A    between atoms: _456  and  _458
REMARK  189  A    between atoms: _458  and  _459
REMARK  190  A    between atoms: _458  and  _461
REMARK  191  A    between atoms: _461  and  _462
REMARK  192  A    between atoms: _464  and  _466
REMARK  193  A    between atoms: _466  and  _467
REMARK  194  A    between atoms: _466  and  _469
REMARK  195  A    between atoms: _469  and  _470
REMARK  196  A    between atoms: _470  and  _471
REMARK  197  A    between atoms: _473  and  _475
REMARK  198  A    between atoms: _475  and  _476
REMARK  199  A    between atoms: _475  and  _478
REMARK  200  A    between atoms: _478  and  _479
REMARK  201  A    between atoms: _479  and  _480
REMARK  202  A    between atoms: _483  and  _485
REMARK  203  A    between atoms: _485  and  _486
REMARK  204  A    between atoms: _485  and  _488
REMARK  205  A    between atoms: _488  and  _489
REMARK  206  A    between atoms: _494  and  _496
REMARK  207  A    between atoms: _496  and  _497
REMARK  208  A    between atoms: _496  and  _499
REMARK  209  A    between atoms: _499  and  _500
REMARK  210  A    between atoms: _506  and  _508
REMARK  211  A    between atoms: _508  and  _509
REMARK  212  A    between atoms: _508  and  _511
REMARK  213  A    between atoms: _511  and  _512
REMARK  214  A    between atoms: _517  and  _518
REMARK  215  A    between atoms: _520  and  _522
REMARK  216  A    between atoms: _522  and  _523
REMARK  217  A    between atoms: _522  and  _525
REMARK  218  A    between atoms: _525  and  _526
REMARK  219  A    between atoms: _529  and  _531
REMARK  220  A    between atoms: _531  and  _532
REMARK  221  A    between atoms: _531  and  _534
REMARK  222  A    between atoms: _534  and  _535
REMARK  223  A    between atoms: _540  and  _541
REMARK  224  A    between atoms: _543  and  _545
REMARK  225  A    between atoms: _545  and  _546
REMARK  226  A    between atoms: _545  and  _548
REMARK  227  A    between atoms: _548  and  _549
REMARK  228  A    between atoms: _552  and  _554
REMARK  229  A    between atoms: _554  and  _555
REMARK  230  A    between atoms: _554  and  _557
REMARK  231  A    between atoms: _557  and  _558
REMARK  232  A    between atoms: _558  and  _559
REMARK  233  A    between atoms: _559  and  _560
REMARK  234  A    between atoms: _569  and  _571
REMARK  235  A    between atoms: _571  and  _572
REMARK  236  A    between atoms: _571  and  _574
REMARK  237  A    between atoms: _574  and  _575
REMARK  238  A    between atoms: _575  and  _576
REMARK  239  A    between atoms: _578  and  _580
REMARK  240  A    between atoms: _580  and  _581
REMARK  241  A    between atoms: _580  and  _583
REMARK  242  A    between atoms: _583  and  _584
REMARK  243  A    between atoms: _584  and  _585
REMARK  244  A    between atoms: _590  and  _592
REMARK  245  A    between atoms: _592  and  _593
REMARK  246  A    between atoms: _592  and  _595
REMARK  247  A    between atoms: _595  and  _596
REMARK                            x       y       z     vdW  Elec       q    Type
REMARK                         _______ _______ _______ _____ _____    ______ ____
ROOT
ATOM      1  O   HOH     1      16.513   3.634   7.506  0.00  0.00    +0.000 OA
ENDROOT
TORSDOF 0
REMARK  Name = ../refined-set-2016/3ebi/3ebi_pocket.pdb
REMARK  247 active torsions:
REMARK  status: ('A' for Active; 'I' for Inactive)
REMARK    1  A    between atoms: _1  and  _3
REMARK    2  A    between atoms: _3  and  _4
REMARK    3  A    between atoms: _7  and  _9
REMARK    4  A    between atoms: _9  and  _10
REMARK    5  A    between atoms: _9  and  _12
REMARK    6  A    between atoms: _12  and  _13
REMARK    7  A    between atoms: _16  and  _18
REMARK    8  A    between atoms: _18  and  _19
REMARK    9  A    between atoms: _18  and  _21
REMARK   10  A    between atoms: _21  and  _22
REMARK   11  A    between atoms: _25  and  _27
REMARK   12  A    between atoms: _27  and  _28
REMARK   13  A    between atoms: _30  and  _32
REMARK   14  A    between atoms: _32  and  _33
REMARK   15  A    between atoms: _32  and  _35
REMARK   16  A    between atoms: _35  and  _36
REMARK   17  A    between atoms: _36  and  _37
REMARK   18  A    between atoms: _42  and  _44
REMARK   19  A    between atoms: _44  and  _45
REMARK   20  A    between atoms: _44  and  _47
REMARK   21  A    between atoms: _49  and  _51
REMARK   22  A    between atoms: _51  and  _52
REMARK   23  A    between atoms: _51  and  _54
REMARK   24  A    between atoms: _54  and  _55
REMARK   25  A    between atoms: _55  and  _56
REMARK   26  A    between atoms: _59  and  _61
REMARK   27  A    between atoms: _61  and  _62
REMARK   28  A    between atoms: _65  and  _67
REMARK   29  A    between atoms: _67  and  _68
REMARK   30  A    between atoms: _67  and  _70
REMARK   31  A    between atoms: _70  and  _71
REMARK   32  A    between atoms: _74  and  _76
REMARK   33  A    between atoms: _76  and  _77
REMARK   34  A    between atoms: _79  and  _81
REMARK   35  A    between atoms: _81  and  _82
REMARK   36  A    between atoms: _81  and  _84
REMARK   37  A    between atoms: _84  and  _85
REMARK   38  A    between atoms: _90  and  _91
REMARK   39  A    between atoms: _93  and  _95
REMARK   40  A    between atoms: _95  and  _96
REMARK   41  A    between atoms: _95  and  _98
REMARK   42  A    between atoms: _98  and  _99
REMARK   43  A    between atoms: _102  and  _104
REMARK   44  A    between atoms: _104  and  _105
REMARK   45  A    between atoms: _104  and  _107
REMARK   46  A    between atoms: _107  and  _108
REMARK   47  A    between atoms: _114  and  _116
REMARK   48  A    between atoms: _116  and  _117
REMARK   49  A    between atoms: _116  and  _119
REMARK   50  A    between atoms: _119  and  _120
REMARK   51  A    between atoms: _125  and  _127
REMARK   52  A    between atoms: _127  and  _128
REMARK   53  A    between atoms: _127  and  _130
REMARK   54  A    between atoms: _133  and  _135
REMARK   55  A    between atoms: _135  and  _136
REMARK   56  A    between atoms: _138  and  _140
REMARK   57  A    between atoms: _140  and  _141
REMARK   58  A    between atoms: _144  and  _146
REMARK   59  A    between atoms: _146  and  _147
REMARK   60  A    between atoms: _146  and  _149
REMARK   61  A    between atoms: _149  and  _150
REMARK   62  A    between atoms: _150  and  _151
REMARK   63  A    between atoms: _153  and  _155
REMARK   64  A    between atoms: _155  and  _156
REMARK   65  A    between atoms: _155  and  _158
REMARK   66  A    between atoms: _158  and  _159
REMARK   67  A    between atoms: _159  and  _160
REMARK   68  A    between atoms: _163  and  _165
REMARK   69  A    between atoms: _165  and  _166
REMARK   70  A    between atoms: _165  and  _168
REMARK   71  A    between atoms: _168  and  _169
REMARK   72  A    between atoms: _174  and  _176
REMARK   73  A    between atoms: _176  and  _177
REMARK   74  A    between atoms: _176  and  _179
REMARK   75  A    between atoms: _179  and  _180
REMARK   76  A    between atoms: _183  and  _185
REMARK   77  A    between atoms: _185  and  _186
REMARK   78  A    between atoms: _185  and  _188
REMARK   79  A    between atoms: _188  and  _189
REMARK   80  A    between atoms: _195  and  _197
REMARK   81  A    between atoms: _197  and  _198
REMARK   82  A    between atoms: _197  and  _200
REMARK   83  A    between atoms: _200  and  _201
REMARK   84  A    between atoms: _206  and  _208
REMARK   85  A    between atoms: _208  and  _209
REMARK   86  A    between atoms: _208  and  _211
REMARK   87  A    between atoms: _211  and  _212
REMARK   88  A    between atoms: _217  and  _219
REMARK   89  A    between atoms: _219  and  _220
REMARK   90  A    between atoms: _219  and  _222
REMARK   91  A    between atoms: _222  and  _223
REMARK   92  A    between atoms: _225  and  _227
REMARK   93  A    between atoms: _227  and  _228
REMARK   94  A    between atoms: _227  and  _230
REMARK   95  A    between atoms: _230  and  _231
REMARK   96  A    between atoms: _237  and  _239
REMARK   97  A    between atoms: _239  and  _240
REMARK   98  A    between atoms: _243  and  _245
REMARK   99  A    between atoms: _245  and  _246
REMARK  100  A    between atoms: _245  and  _248
REMARK  101  A    between atoms: _248  and  _249
REMARK  102  A    between atoms: _249  and  _250
REMARK  103  A    between atoms: _250  and  _251
REMARK  104  A    between atoms: _260  and  _262
REMARK  105  A    between atoms: _262  and  _263
REMARK  106  A    between atoms: _262  and  _265
REMARK  107  A    between atoms: _265  and  _266
REMARK  108  A    between atoms: _269  and  _271
REMARK  109  A    between atoms: _271  and  _272
REMARK  110  A    between atoms: _271  and  _274
REMARK  111  A    between atoms: _274  and  _275
REMARK  112  A    between atoms: _278  and  _280
REMARK  113  A    between atoms: _280  and  _281
REMARK  114  A    between atoms: _280  and  _283
REMARK  115  A    between atoms: _283  and  _284
REMARK  116  A    between atoms: _287  and  _289
REMARK  117  A    between atoms: _289  and  _290
REMARK  118  A    between atoms: _289  and  _292
REMARK  119  A    between atoms: _295  and  _297
REMARK  120  A    between atoms: _297  and  _298
REMARK  121  A    between atoms: _297  and  _300
REMARK  122  A    between atoms: _303  and  _305
REMARK  123  A    between atoms: _305  and  _306
REMARK  124  A    between atoms: _308  and  _310
REMARK  125  A    between atoms: _310  and  _311
REMARK  126  A    between atoms: _310  and  _313
REMARK  127  A    between atoms: _313  and  _314
REMARK  128  A    between atoms: _318  and  ZN_601
REMARK  129  A    between atoms: _319  and  _321
REMARK  130  A    between atoms: _321  and  _322
REMARK  131  A    between atoms: _321  and  _324
REMARK  132  A    between atoms: _324  and  _325
REMARK  133  A    between atoms: _325  and  _326
REMARK  134  A    between atoms: _329  and  _331
REMARK  135  A    between atoms: _331  and  _332
REMARK  136  A    between atoms: _331  and  _334
REMARK  137  A    between atoms: _334  and  _335
REMARK  138  A    between atoms: _340  and  _341
REMARK  139  A    between atoms: _343  and  _345
REMARK  140  A    between atoms: _345  and  _346
REMARK  141  A    between atoms: _345  and  _348
REMARK  142  A    between atoms: _348  and  _349
REMARK  143  A    between atoms: _353  and  ZN_601
REMARK  144  A    between atoms: _354  and  _356
REMARK  145  A    between atoms: _356  and  _357
REMARK  146  A    between atoms: _356  and  _359
REMARK  147  A    between atoms: _359  and  _360
REMARK  148  A    between atoms: _365  and  _367
REMARK  149  A    between atoms: _367  and  _368
REMARK  150  A    between atoms: _367  and  _370
REMARK  151  A    between atoms: _370  and  _371
REMARK  152  A    between atoms: _381  and  _383
REMARK  153  A    between atoms: _383  and  _384
REMARK  154  A    between atoms: _383  and  _386
REMARK  155  A    between atoms: _386  and  _387
REMARK  156  A    between atoms: _390  and  _392
REMARK  157  A    between atoms: _392  and  _393
REMARK  158  A    between atoms: _392  and  _395
REMARK  159  A    between atoms: _395  and  _396
REMARK  160  A    between atoms: _396  and  _397
REMARK  161  A    between atoms: _397  and  _398
REMARK  162  A    between atoms: _398  and  _399
REMARK  163  A    between atoms: _403  and  _405
REMARK  164  A    between atoms: _405  and  _406
REMARK  165  A    between atoms: _405  and  _408
REMARK  166  A    between atoms: _408  and  _409
REMARK  167  A    between atoms: _409  and  _410
REMARK  168  A    between atoms: _410  and  _411
REMARK  169  A    between atoms: _411  and  ZN_601
REMARK  170  A    between atoms: _413  and  _415
REMARK  171  A    between atoms: _415  and  _416
REMARK  172  A    between atoms: _418  and  _420
REMARK  173  A    between atoms: _420  and  _421
REMARK  174  A    between atoms: _420  and  _423
REMARK  175  A    between atoms: _423  and  _424
REMARK  176  A    between atoms: _427  and  _429
REMARK  177  A    between atoms: _429  and  _430
REMARK  178  A    between atoms: _429  and  _432
REMARK  179  A    between atoms: _435  and  _437
REMARK  180  A    between atoms: _437  and  _438
REMARK  181  A    between atoms: _437  and  _440
REMARK  182  A    between atoms: _440  and  _441
REMARK  183  A    between atoms: _441  and  _442
REMARK  184  A    between atoms: _445  and  _447
REMARK  185  A    between atoms: _447  and  _448
REMARK  186  A    between atoms: _447  and  _450
REMARK  187  A    between atoms: _450  and  _451
REMARK  188  A    between atoms: _456  and  _458
REMARK  189  A    between atoms: _458  and  _459
REMARK  190  A    between atoms: _458  and  _461
REMARK  191  A    between atoms: _461  and  _462
REMARK  192  A    between atoms: _464  and  _466
REMARK  193  A    between atoms: _466  and  _467
REMARK  194  A    between atoms: _466  and  _469
REMARK  195  A    between atoms: _469  and  _470
REMARK  196  A    between atoms: _470  and  _471
REMARK  197  A    between atoms: _473  and  _475
REMARK  198  A    between atoms: _475  and  _476
REMARK  199  A    between atoms: _475  and  _478
REMARK  200  A    between atoms: _478  and  _479
REMARK  201  A    between atoms: _479  and  _480
REMARK  202  A    between atoms: _483  and  _485
REMARK  203  A    between atoms: _485  and  _486
REMARK  204  A    between atoms: _485  and  _488
REMARK  205  A    between atoms: _488  and  _489
REMARK  206  A    between atoms: _494  and  _496
REMARK  207  A    between atoms: _496  and  _497
REMARK  208  A    between atoms: _496  and  _499
REMARK  209  A    between atoms: _499  and  _500
REMARK  210  A    between atoms: _506  and  _508
REMARK  211  A    between atoms: _508  and  _509
REMARK  212  A    between atoms: _508  and  _511
REMARK  213  A    between atoms: _511  and  _512
REMARK  214  A    between atoms: _517  and  _518
REMARK  215  A    between atoms: _520  and  _522
REMARK  216  A    between atoms: _522  and  _523
REMARK  217  A    between atoms: _522  and  _525
REMARK  218  A    between atoms: _525  and  _526
REMARK  219  A    between atoms: _529  and  _531
REMARK  220  A    between atoms: _531  and  _532
REMARK  221  A    between atoms: _531  and  _534
REMARK  222  A    between atoms: _534  and  _535
REMARK  223  A    between atoms: _540  and  _541
REMARK  224  A    between atoms: _543  and  _545
REMARK  225  A    between atoms: _545  and  _546
REMARK  226  A    between atoms: _545  and  _548
REMARK  227  A    between atoms: _548  and  _549
REMARK  228  A    between atoms: _552  and  _554
REMARK  229  A    between atoms: _554  and  _555
REMARK  230  A    between atoms: _554  and  _557
REMARK  231  A    between atoms: _557  and  _558
REMARK  232  A    between atoms: _558  and  _559
REMARK  233  A    between atoms: _559  and  _560
REMARK  234  A    between atoms: _569  and  _571
REMARK  235  A    between atoms: _571  and  _572
REMARK  236  A    between atoms: _571  and  _574
REMARK  237  A    between atoms: _574  and  _575
REMARK  238  A    between atoms: _575  and  _576
REMARK  239  A    between atoms: _578  and  _580
REMARK  240  A    between atoms: _580  and  _581
REMARK  241  A    between atoms: _580  and  _583
REMARK  242  A    between atoms: _583  and  _584
REMARK  243  A    between atoms: _584  and  _585
REMARK  244  A    between atoms: _590  and  _592
REMARK  245  A    between atoms: _592  and  _593
REMARK  246  A    between atoms: _592  and  _595
REMARK  247  A    between atoms: _595  and  _596
REMARK                            x       y       z     vdW  Elec       q    Type
REMARK                         _______ _______ _______ _____ _____    ______ ____
ROOT
ATOM      1  O   HOH     1      13.316   3.998  19.153  0.00  0.00    +0.000 OA
ENDROOT
TORSDOF 0
REMARK  Name = ../refined-set-2016/3ebi/3ebi_pocket.pdb
REMARK  247 active torsions:
REMARK  status: ('A' for Active; 'I' for Inactive)
REMARK    1  A    between atoms: _1  and  _3
REMARK    2  A    between atoms: _3  and  _4
REMARK    3  A    between atoms: _7  and  _9
REMARK    4  A    between atoms: _9  and  _10
REMARK    5  A    between atoms: _9  and  _12
REMARK    6  A    between atoms: _12  and  _13
REMARK    7  A    between atoms: _16  and  _18
REMARK    8  A    between atoms: _18  and  _19
REMARK    9  A    between atoms: _18  and  _21
REMARK   10  A    between atoms: _21  and  _22
REMARK   11  A    between atoms: _25  and  _27
REMARK   12  A    between atoms: _27  and  _28
REMARK   13  A    between atoms: _30  and  _32
REMARK   14  A    between atoms: _32  and  _33
REMARK   15  A    between atoms: _32  and  _35
REMARK   16  A    between atoms: _35  and  _36
REMARK   17  A    between atoms: _36  and  _37
REMARK   18  A    between atoms: _42  and  _44
REMARK   19  A    between atoms: _44  and  _45
REMARK   20  A    between atoms: _44  and  _47
REMARK   21  A    between atoms: _49  and  _51
REMARK   22  A    between atoms: _51  and  _52
REMARK   23  A    between atoms: _51  and  _54
REMARK   24  A    between atoms: _54  and  _55
REMARK   25  A    between atoms: _55  and  _56
REMARK   26  A    between atoms: _59  and  _61
REMARK   27  A    between atoms: _61  and  _62
REMARK   28  A    between atoms: _65  and  _67
REMARK   29  A    between atoms: _67  and  _68
REMARK   30  A    between atoms: _67  and  _70
REMARK   31  A    between atoms: _70  and  _71
REMARK   32  A    between atoms: _74  and  _76
REMARK   33  A    between atoms: _76  and  _77
REMARK   34  A    between atoms: _79  and  _81
REMARK   35  A    between atoms: _81  and  _82
REMARK   36  A    between atoms: _81  and  _84
REMARK   37  A    between atoms: _84  and  _85
REMARK   38  A    between atoms: _90  and  _91
REMARK   39  A    between atoms: _93  and  _95
REMARK   40  A    between atoms: _95  and  _96
REMARK   41  A    between atoms: _95  and  _98
REMARK   42  A    between atoms: _98  and  _99
REMARK   43  A    between atoms: _102  and  _104
REMARK   44  A    between atoms: _104  and  _105
REMARK   45  A    between atoms: _104  and  _107
REMARK   46  A    between atoms: _107  and  _108
REMARK   47  A    between atoms: _114  and  _116
REMARK   48  A    between atoms: _116  and  _117
REMARK   49  A    between atoms: _116  and  _119
REMARK   50  A    between atoms: _119  and  _120
REMARK   51  A    between atoms: _125  and  _127
REMARK   52  A    between atoms: _127  and  _128
REMARK   53  A    between atoms: _127  and  _130
REMARK   54  A    between atoms: _133  and  _135
REMARK   55  A    between atoms: _135  and  _136
REMARK   56  A    between atoms: _138  and  _140
REMARK   57  A    between atoms: _140  and  _141
REMARK   58  A    between atoms: _144  and  _146
REMARK   59  A    between atoms: _146  and  _147
REMARK   60  A    between atoms: _146  and  _149
REMARK   61  A    between atoms: _149  and  _150
REMARK   62  A    between atoms: _150  and  _151
REMARK   63  A    between atoms: _153  and  _155
REMARK   64  A    between atoms: _155  and  _156
REMARK   65  A    between atoms: _155  and  _158
REMARK   66  A    between atoms: _158  and  _159
REMARK   67  A    between atoms: _159  and  _160
REMARK   68  A    between atoms: _163  and  _165
REMARK   69  A    between atoms: _165  and  _166
REMARK   70  A    between atoms: _165  and  _168
REMARK   71  A    between atoms: _168  and  _169
REMARK   72  A    between atoms: _174  and  _176
REMARK   73  A    between atoms: _176  and  _177
REMARK   74  A    between atoms: _176  and  _179
REMARK   75  A    between atoms: _179  and  _180
REMARK   76  A    between atoms: _183  and  _185
REMARK   77  A    between atoms: _185  and  _186
REMARK   78  A    between atoms: _185  and  _188
REMARK   79  A    between atoms: _188  and  _189
REMARK   80  A    between atoms: _195  and  _197
REMARK   81  A    between atoms: _197  and  _198
REMARK   82  A    between atoms: _197  and  _200
REMARK   83  A    between atoms: _200  and  _201
REMARK   84  A    between atoms: _206  and  _208
REMARK   85  A    between atoms: _208  and  _209
REMARK   86  A    between atoms: _208  and  _211
REMARK   87  A    between atoms: _211  and  _212
REMARK   88  A    between atoms: _217  and  _219
REMARK   89  A    between atoms: _219  and  _220
REMARK   90  A    between atoms: _219  and  _222
REMARK   91  A    between atoms: _222  and  _223
REMARK   92  A    between atoms: _225  and  _227
REMARK   93  A    between atoms: _227  and  _228
REMARK   94  A    between atoms: _227  and  _230
REMARK   95  A    between atoms: _230  and  _231
REMARK   96  A    between atoms: _237  and  _239
REMARK   97  A    between atoms: _239  and  _240
REMARK   98  A    between atoms: _243  and  _245
REMARK   99  A    between atoms: _245  and  _246
REMARK  100  A    between atoms: _245  and  _248
REMARK  101  A    between atoms: _248  and  _249
REMARK  102  A    between atoms: _249  and  _250
REMARK  103  A    between atoms: _250  and  _251
REMARK  104  A    between atoms: _260  and  _262
REMARK  105  A    between atoms: _262  and  _263
REMARK  106  A    between atoms: _262  and  _265
REMARK  107  A    between atoms: _265  and  _266
REMARK  108  A    between atoms: _269  and  _271
REMARK  109  A    between atoms: _271  and  _272
REMARK  110  A    between atoms: _271  and  _274
REMARK  111  A    between atoms: _274  and  _275
REMARK  112  A    between atoms: _278  and  _280
REMARK  113  A    between atoms: _280  and  _281
REMARK  114  A    between atoms: _280  and  _283
REMARK  115  A    between atoms: _283  and  _284
REMARK  116  A    between atoms: _287  and  _289
REMARK  117  A    between atoms: _289  and  _290
REMARK  118  A    between atoms: _289  and  _292
REMARK  119  A    between atoms: _295  and  _297
REMARK  120  A    between atoms: _297  and  _298
REMARK  121  A    between atoms: _297  and  _300
REMARK  122  A    between atoms: _303  and  _305
REMARK  123  A    between atoms: _305  and  _306
REMARK  124  A    between atoms: _308  and  _310
REMARK  125  A    between atoms: _310  and  _311
REMARK  126  A    between atoms: _310  and  _313
REMARK  127  A    between atoms: _313  and  _314
REMARK  128  A    between atoms: _318  and  ZN_601
REMARK  129  A    between atoms: _319  and  _321
REMARK  130  A    between atoms: _321  and  _322
REMARK  131  A    between atoms: _321  and  _324
REMARK  132  A    between atoms: _324  and  _325
REMARK  133  A    between atoms: _325  and  _326
REMARK  134  A    between atoms: _329  and  _331
REMARK  135  A    between atoms: _331  and  _332
REMARK  136  A    between atoms: _331  and  _334
REMARK  137  A    between atoms: _334  and  _335
REMARK  138  A    between atoms: _340  and  _341
REMARK  139  A    between atoms: _343  and  _345
REMARK  140  A    between atoms: _345  and  _346
REMARK  141  A    between atoms: _345  and  _348
REMARK  142  A    between atoms: _348  and  _349
REMARK  143  A    between atoms: _353  and  ZN_601
REMARK  144  A    between atoms: _354  and  _356
REMARK  145  A    between atoms: _356  and  _357
REMARK  146  A    between atoms: _356  and  _359
REMARK  147  A    between atoms: _359  and  _360
REMARK  148  A    between atoms: _365  and  _367
REMARK  149  A    between atoms: _367  and  _368
REMARK  150  A    between atoms: _367  and  _370
REMARK  151  A    between atoms: _370  and  _371
REMARK  152  A    between atoms: _381  and  _383
REMARK  153  A    between atoms: _383  and  _384
REMARK  154  A    between atoms: _383  and  _386
REMARK  155  A    between atoms: _386  and  _387
REMARK  156  A    between atoms: _390  and  _392
REMARK  157  A    between atoms: _392  and  _393
REMARK  158  A    between atoms: _392  and  _395
REMARK  159  A    between atoms: _395  and  _396
REMARK  160  A    between atoms: _396  and  _397
REMARK  161  A    between atoms: _397  and  _398
REMARK  162  A    between atoms: _398  and  _399
REMARK  163  A    between atoms: _403  and  _405
REMARK  164  A    between atoms: _405  and  _406
REMARK  165  A    between atoms: _405  and  _408
REMARK  166  A    between atoms: _408  and  _409
REMARK  167  A    between atoms: _409  and  _410
REMARK  168  A    between atoms: _410  and  _411
REMARK  169  A    between atoms: _411  and  ZN_601
REMARK  170  A    between atoms: _413  and  _415
REMARK  171  A    between atoms: _415  and  _416
REMARK  172  A    between atoms: _418  and  _420
REMARK  173  A    between atoms: _420  and  _421
REMARK  174  A    between atoms: _420  and  _423
REMARK  175  A    between atoms: _423  and  _424
REMARK  176  A    between atoms: _427  and  _429
REMARK  177  A    between atoms: _429  and  _430
REMARK  178  A    between atoms: _429  and  _432
REMARK  179  A    between atoms: _435  and  _437
REMARK  180  A    between atoms: _437  and  _438
REMARK  181  A    between atoms: _437  and  _440
REMARK  182  A    between atoms: _440  and  _441
REMARK  183  A    between atoms: _441  and  _442
REMARK  184  A    between atoms: _445  and  _447
REMARK  185  A    between atoms: _447  and  _448
REMARK  186  A    between atoms: _447  and  _450
REMARK  187  A    between atoms: _450  and  _451
REMARK  188  A    between atoms: _456  and  _458
REMARK  189  A    between atoms: _458  and  _459
REMARK  190  A    between atoms: _458  and  _461
REMARK  191  A    between atoms: _461  and  _462
REMARK  192  A    between atoms: _464  and  _466
REMARK  193  A    between atoms: _466  and  _467
REMARK  194  A    between atoms: _466  and  _469
REMARK  195  A    between atoms: _469  and  _470
REMARK  196  A    between atoms: _470  and  _471
REMARK  197  A    between atoms: _473  and  _475
REMARK  198  A    between atoms: _475  and  _476
REMARK  199  A    between atoms: _475  and  _478
REMARK  200  A    between atoms: _478  and  _479
REMARK  201  A    between atoms: _479  and  _480
REMARK  202  A    between atoms: _483  and  _485
REMARK  203  A    between atoms: _485  and  _486
REMARK  204  A    between atoms: _485  and  _488
REMARK  205  A    between atoms: _488  and  _489
REMARK  206  A    between atoms: _494  and  _496
REMARK  207  A    between atoms: _496  and  _497
REMARK  208  A    between atoms: _496  and  _499
REMARK  209  A    between atoms: _499  and  _500
REMARK  210  A    between atoms: _506  and  _508
REMARK  211  A    between atoms: _508  and  _509
REMARK  212  A    between atoms: _508  and  _511
REMARK  213  A    between atoms: _511  and  _512
REMARK  214  A    between atoms: _517  and  _518
REMARK  215  A    between atoms: _520  and  _522
REMARK  216  A    between atoms: _522  and  _523
REMARK  217  A    between atoms: _522  and  _525
REMARK  218  A    between atoms: _525  and  _526
REMARK  219  A    between atoms: _529  and  _531
REMARK  220  A    between atoms: _531  and  _532
REMARK  221  A    between atoms: _531  and  _534
REMARK  222  A    between atoms: _534  and  _535
REMARK  223  A    between atoms: _540  and  _541
REMARK  224  A    between atoms: _543  and  _545
REMARK  225  A    between atoms: _545  and  _546
REMARK  226  A    between atoms: _545  and  _548
REMARK  227  A    between atoms: _548  and  _549
REMARK  228  A    between atoms: _552  and  _554
REMARK  229  A    between atoms: _554  and  _555
REMARK  230  A    between atoms: _554  and  _557
REMARK  231  A    between atoms: _557  and  _558
REMARK  232  A    between atoms: _558  and  _559
REMARK  233  A    between atoms: _559  and  _560
REMARK  234  A    between atoms: _569  and  _571
REMARK  235  A    between atoms: _571  and  _572
REMARK  236  A    between atoms: _571  and  _574
REMARK  237  A    between atoms: _574  and  _575
REMARK  238  A    between atoms: _575  and  _576
REMARK  239  A    between atoms: _578  and  _580
REMARK  240  A    between atoms: _580  and  _581
REMARK  241  A    between atoms: _580  and  _583
REMARK  242  A    between atoms: _583  and  _584
REMARK  243  A    between atoms: _584  and  _585
REMARK  244  A    between atoms: _590  and  _592
REMARK  245  A    between atoms: _592  and  _593
REMARK  246  A    between atoms: _592  and  _595
REMARK  247  A    between atoms: _595  and  _596
REMARK                            x       y       z     vdW  Elec       q    Type
REMARK                         _______ _______ _______ _____ _____    ______ ____
ROOT
ATOM      1  O   HOH     1      19.303   1.861   4.446  0.00  0.00    +0.000 OA
ENDROOT
TORSDOF 0
REMARK  Name = ../refined-set-2016/3ebi/3ebi_pocket.pdb
REMARK  247 active torsions:
REMARK  status: ('A' for Active; 'I' for Inactive)
REMARK    1  A    between atoms: _1  and  _3
REMARK    2  A    between atoms: _3  and  _4
REMARK    3  A    between atoms: _7  and  _9
REMARK    4  A    between atoms: _9  and  _10
REMARK    5  A    between atoms: _9  and  _12
REMARK    6  A    between atoms: _12  and  _13
REMARK    7  A    between atoms: _16  and  _18
REMARK    8  A    between atoms: _18  and  _19
REMARK    9  A    between atoms: _18  and  _21
REMARK   10  A    between atoms: _21  and  _22
REMARK   11  A    between atoms: _25  and  _27
REMARK   12  A    between atoms: _27  and  _28
REMARK   13  A    between atoms: _30  and  _32
REMARK   14  A    between atoms: _32  and  _33
REMARK   15  A    between atoms: _32  and  _35
REMARK   16  A    between atoms: _35  and  _36
REMARK   17  A    between atoms: _36  and  _37
REMARK   18  A    between atoms: _42  and  _44
REMARK   19  A    between atoms: _44  and  _45
REMARK   20  A    between atoms: _44  and  _47
REMARK   21  A    between atoms: _49  and  _51
REMARK   22  A    between atoms: _51  and  _52
REMARK   23  A    between atoms: _51  and  _54
REMARK   24  A    between atoms: _54  and  _55
REMARK   25  A    between atoms: _55  and  _56
REMARK   26  A    between atoms: _59  and  _61
REMARK   27  A    between atoms: _61  and  _62
REMARK   28  A    between atoms: _65  and  _67
REMARK   29  A    between atoms: _67  and  _68
REMARK   30  A    between atoms: _67  and  _70
REMARK   31  A    between atoms: _70  and  _71
REMARK   32  A    between atoms: _74  and  _76
REMARK   33  A    between atoms: _76  and  _77
REMARK   34  A    between atoms: _79  and  _81
REMARK   35  A    between atoms: _81  and  _82
REMARK   36  A    between atoms: _81  and  _84
REMARK   37  A    between atoms: _84  and  _85
REMARK   38  A    between atoms: _90  and  _91
REMARK   39  A    between atoms: _93  and  _95
REMARK   40  A    between atoms: _95  and  _96
REMARK   41  A    between atoms: _95  and  _98
REMARK   42  A    between atoms: _98  and  _99
REMARK   43  A    between atoms: _102  and  _104
REMARK   44  A    between atoms: _104  and  _105
REMARK   45  A    between atoms: _104  and  _107
REMARK   46  A    between atoms: _107  and  _108
REMARK   47  A    between atoms: _114  and  _116
REMARK   48  A    between atoms: _116  and  _117
REMARK   49  A    between atoms: _116  and  _119
REMARK   50  A    between atoms: _119  and  _120
REMARK   51  A    between atoms: _125  and  _127
REMARK   52  A    between atoms: _127  and  _128
REMARK   53  A    between atoms: _127  and  _130
REMARK   54  A    between atoms: _133  and  _135
REMARK   55  A    between atoms: _135  and  _136
REMARK   56  A    between atoms: _138  and  _140
REMARK   57  A    between atoms: _140  and  _141
REMARK   58  A    between atoms: _144  and  _146
REMARK   59  A    between atoms: _146  and  _147
REMARK   60  A    between atoms: _146  and  _149
REMARK   61  A    between atoms: _149  and  _150
REMARK   62  A    between atoms: _150  and  _151
REMARK   63  A    between atoms: _153  and  _155
REMARK   64  A    between atoms: _155  and  _156
REMARK   65  A    between atoms: _155  and  _158
REMARK   66  A    between atoms: _158  and  _159
REMARK   67  A    between atoms: _159  and  _160
REMARK   68  A    between atoms: _163  and  _165
REMARK   69  A    between atoms: _165  and  _166
REMARK   70  A    between atoms: _165  and  _168
REMARK   71  A    between atoms: _168  and  _169
REMARK   72  A    between atoms: _174  and  _176
REMARK   73  A    between atoms: _176  and  _177
REMARK   74  A    between atoms: _176  and  _179
REMARK   75  A    between atoms: _179  and  _180
REMARK   76  A    between atoms: _183  and  _185
REMARK   77  A    between atoms: _185  and  _186
REMARK   78  A    between atoms: _185  and  _188
REMARK   79  A    between atoms: _188  and  _189
REMARK   80  A    between atoms: _195  and  _197
REMARK   81  A    between atoms: _197  and  _198
REMARK   82  A    between atoms: _197  and  _200
REMARK   83  A    between atoms: _200  and  _201
REMARK   84  A    between atoms: _206  and  _208
REMARK   85  A    between atoms: _208  and  _209
REMARK   86  A    between atoms: _208  and  _211
REMARK   87  A    between atoms: _211  and  _212
REMARK   88  A    between atoms: _217  and  _219
REMARK   89  A    between atoms: _219  and  _220
REMARK   90  A    between atoms: _219  and  _222
REMARK   91  A    between atoms: _222  and  _223
REMARK   92  A    between atoms: _225  and  _227
REMARK   93  A    between atoms: _227  and  _228
REMARK   94  A    between atoms: _227  and  _230
REMARK   95  A    between atoms: _230  and  _231
REMARK   96  A    between atoms: _237  and  _239
REMARK   97  A    between atoms: _239  and  _240
REMARK   98  A    between atoms: _243  and  _245
REMARK   99  A    between atoms: _245  and  _246
REMARK  100  A    between atoms: _245  and  _248
REMARK  101  A    between atoms: _248  and  _249
REMARK  102  A    between atoms: _249  and  _250
REMARK  103  A    between atoms: _250  and  _251
REMARK  104  A    between atoms: _260  and  _262
REMARK  105  A    between atoms: _262  and  _263
REMARK  106  A    between atoms: _262  and  _265
REMARK  107  A    between atoms: _265  and  _266
REMARK  108  A    between atoms: _269  and  _271
REMARK  109  A    between atoms: _271  and  _272
REMARK  110  A    between atoms: _271  and  _274
REMARK  111  A    between atoms: _274  and  _275
REMARK  112  A    between atoms: _278  and  _280
REMARK  113  A    between atoms: _280  and  _281
REMARK  114  A    between atoms: _280  and  _283
REMARK  115  A    between atoms: _283  and  _284
REMARK  116  A    between atoms: _287  and  _289
REMARK  117  A    between atoms: _289  and  _290
REMARK  118  A    between atoms: _289  and  _292
REMARK  119  A    between atoms: _295  and  _297
REMARK  120  A    between atoms: _297  and  _298
REMARK  121  A    between atoms: _297  and  _300
REMARK  122  A    between atoms: _303  and  _305
REMARK  123  A    between atoms: _305  and  _306
REMARK  124  A    between atoms: _308  and  _310
REMARK  125  A    between atoms: _310  and  _311
REMARK  126  A    between atoms: _310  and  _313
REMARK  127  A    between atoms: _313  and  _314
REMARK  128  A    between atoms: _318  and  ZN_601
REMARK  129  A    between atoms: _319  and  _321
REMARK  130  A    between atoms: _321  and  _322
REMARK  131  A    between atoms: _321  and  _324
REMARK  132  A    between atoms: _324  and  _325
REMARK  133  A    between atoms: _325  and  _326
REMARK  134  A    between atoms: _329  and  _331
REMARK  135  A    between atoms: _331  and  _332
REMARK  136  A    between atoms: _331  and  _334
REMARK  137  A    between atoms: _334  and  _335
REMARK  138  A    between atoms: _340  and  _341
REMARK  139  A    between atoms: _343  and  _345
REMARK  140  A    between atoms: _345  and  _346
REMARK  141  A    between atoms: _345  and  _348
REMARK  142  A    between atoms: _348  and  _349
REMARK  143  A    between atoms: _353  and  ZN_601
REMARK  144  A    between atoms: _354  and  _356
REMARK  145  A    between atoms: _356  and  _357
REMARK  146  A    between atoms: _356  and  _359
REMARK  147  A    between atoms: _359  and  _360
REMARK  148  A    between atoms: _365  and  _367
REMARK  149  A    between atoms: _367  and  _368
REMARK  150  A    between atoms: _367  and  _370
REMARK  151  A    between atoms: _370  and  _371
REMARK  152  A    between atoms: _381  and  _383
REMARK  153  A    between atoms: _383  and  _384
REMARK  154  A    between atoms: _383  and  _386
REMARK  155  A    between atoms: _386  and  _387
REMARK  156  A    between atoms: _390  and  _392
REMARK  157  A    between atoms: _392  and  _393
REMARK  158  A    between atoms: _392  and  _395
REMARK  159  A    between atoms: _395  and  _396
REMARK  160  A    between atoms: _396  and  _397
REMARK  161  A    between atoms: _397  and  _398
REMARK  162  A    between atoms: _398  and  _399
REMARK  163  A    between atoms: _403  and  _405
REMARK  164  A    between atoms: _405  and  _406
REMARK  165  A    between atoms: _405  and  _408
REMARK  166  A    between atoms: _408  and  _409
REMARK  167  A    between atoms: _409  and  _410
REMARK  168  A    between atoms: _410  and  _411
REMARK  169  A    between atoms: _411  and  ZN_601
REMARK  170  A    between atoms: _413  and  _415
REMARK  171  A    between atoms: _415  and  _416
REMARK  172  A    between atoms: _418  and  _420
REMARK  173  A    between atoms: _420  and  _421
REMARK  174  A    between atoms: _420  and  _423
REMARK  175  A    between atoms: _423  and  _424
REMARK  176  A    between atoms: _427  and  _429
REMARK  177  A    between atoms: _429  and  _430
REMARK  178  A    between atoms: _429  and  _432
REMARK  179  A    between atoms: _435  and  _437
REMARK  180  A    between atoms: _437  and  _438
REMARK  181  A    between atoms: _437  and  _440
REMARK  182  A    between atoms: _440  and  _441
REMARK  183  A    between atoms: _441  and  _442
REMARK  184  A    between atoms: _445  and  _447
REMARK  185  A    between atoms: _447  and  _448
REMARK  186  A    between atoms: _447  and  _450
REMARK  187  A    between atoms: _450  and  _451
REMARK  188  A    between atoms: _456  and  _458
REMARK  189  A    between atoms: _458  and  _459
REMARK  190  A    between atoms: _458  and  _461
REMARK  191  A    between atoms: _461  and  _462
REMARK  192  A    between atoms: _464  and  _466
REMARK  193  A    between atoms: _466  and  _467
REMARK  194  A    between atoms: _466  and  _469
REMARK  195  A    between atoms: _469  and  _470
REMARK  196  A    between atoms: _470  and  _471
REMARK  197  A    between atoms: _473  and  _475
REMARK  198  A    between atoms: _475  and  _476
REMARK  199  A    between atoms: _475  and  _478
REMARK  200  A    between atoms: _478  and  _479
REMARK  201  A    between atoms: _479  and  _480
REMARK  202  A    between atoms: _483  and  _485
REMARK  203  A    between atoms: _485  and  _486
REMARK  204  A    between atoms: _485  and  _488
REMARK  205  A    between atoms: _488  and  _489
REMARK  206  A    between atoms: _494  and  _496
REMARK  207  A    between atoms: _496  and  _497
REMARK  208  A    between atoms: _496  and  _499
REMARK  209  A    between atoms: _499  and  _500
REMARK  210  A    between atoms: _506  and  _508
REMARK  211  A    between atoms: _508  and  _509
REMARK  212  A    between atoms: _508  and  _511
REMARK  213  A    between atoms: _511  and  _512
REMARK  214  A    between atoms: _517  and  _518
REMARK  215  A    between atoms: _520  and  _522
REMARK  216  A    between atoms: _522  and  _523
REMARK  217  A    between atoms: _522  and  _525
REMARK  218  A    between atoms: _525  and  _526
REMARK  219  A    between atoms: _529  and  _531
REMARK  220  A    between atoms: _531  and  _532
REMARK  221  A    between atoms: _531  and  _534
REMARK  222  A    between atoms: _534  and  _535
REMARK  223  A    between atoms: _540  and  _541
REMARK  224  A    between atoms: _543  and  _545
REMARK  225  A    between atoms: _545  and  _546
REMARK  226  A    between atoms: _545  and  _548
REMARK  227  A    between atoms: _548  and  _549
REMARK  228  A    between atoms: _552  and  _554
REMARK  229  A    between atoms: _554  and  _555
REMARK  230  A    between atoms: _554  and  _557
REMARK  231  A    between atoms: _557  and  _558
REMARK  232  A    between atoms: _558  and  _559
REMARK  233  A    between atoms: _559  and  _560
REMARK  234  A    between atoms: _569  and  _571
REMARK  235  A    between atoms: _571  and  _572
REMARK  236  A    between atoms: _571  and  _574
REMARK  237  A    between atoms: _574  and  _575
REMARK  238  A    between atoms: _575  and  _576
REMARK  239  A    between atoms: _578  and  _580
REMARK  240  A    between atoms: _580  and  _581
REMARK  241  A    between atoms: _580  and  _583
REMARK  242  A    between atoms: _583  and  _584
REMARK  243  A    between atoms: _584  and  _585
REMARK  244  A    between atoms: _590  and  _592
REMARK  245  A    between atoms: _592  and  _593
REMARK  246  A    between atoms: _592  and  _595
REMARK  247  A    between atoms: _595  and  _596
REMARK                            x       y       z     vdW  Elec       q    Type
REMARK                         _______ _______ _______ _____ _____    ______ ____
ROOT
ATOM      1  O   HOH     1      16.017   5.403  13.117  0.00  0.00    +0.000 OA
ENDROOT
TORSDOF 0
REMARK  Name = ../refined-set-2016/3ebi/3ebi_pocket.pdb
REMARK  247 active torsions:
REMARK  status: ('A' for Active; 'I' for Inactive)
REMARK    1  A    between atoms: _1  and  _3
REMARK    2  A    between atoms: _3  and  _4
REMARK    3  A    between atoms: _7  and  _9
REMARK    4  A    between atoms: _9  and  _10
REMARK    5  A    between atoms: _9  and  _12
REMARK    6  A    between atoms: _12  and  _13
REMARK    7  A    between atoms: _16  and  _18
REMARK    8  A    between atoms: _18  and  _19
REMARK    9  A    between atoms: _18  and  _21
REMARK   10  A    between atoms: _21  and  _22
REMARK   11  A    between atoms: _25  and  _27
REMARK   12  A    between atoms: _27  and  _28
REMARK   13  A    between atoms: _30  and  _32
REMARK   14  A    between atoms: _32  and  _33
REMARK   15  A    between atoms: _32  and  _35
REMARK   16  A    between atoms: _35  and  _36
REMARK   17  A    between atoms: _36  and  _37
REMARK   18  A    between atoms: _42  and  _44
REMARK   19  A    between atoms: _44  and  _45
REMARK   20  A    between atoms: _44  and  _47
REMARK   21  A    between atoms: _49  and  _51
REMARK   22  A    between atoms: _51  and  _52
REMARK   23  A    between atoms: _51  and  _54
REMARK   24  A    between atoms: _54  and  _55
REMARK   25  A    between atoms: _55  and  _56
REMARK   26  A    between atoms: _59  and  _61
REMARK   27  A    between atoms: _61  and  _62
REMARK   28  A    between atoms: _65  and  _67
REMARK   29  A    between atoms: _67  and  _68
REMARK   30  A    between atoms: _67  and  _70
REMARK   31  A    between atoms: _70  and  _71
REMARK   32  A    between atoms: _74  and  _76
REMARK   33  A    between atoms: _76  and  _77
REMARK   34  A    between atoms: _79  and  _81
REMARK   35  A    between atoms: _81  and  _82
REMARK   36  A    between atoms: _81  and  _84
REMARK   37  A    between atoms: _84  and  _85
REMARK   38  A    between atoms: _90  and  _91
REMARK   39  A    between atoms: _93  and  _95
REMARK   40  A    between atoms: _95  and  _96
REMARK   41  A    between atoms: _95  and  _98
REMARK   42  A    between atoms: _98  and  _99
REMARK   43  A    between atoms: _102  and  _104
REMARK   44  A    between atoms: _104  and  _105
REMARK   45  A    between atoms: _104  and  _107
REMARK   46  A    between atoms: _107  and  _108
REMARK   47  A    between atoms: _114  and  _116
REMARK   48  A    between atoms: _116  and  _117
REMARK   49  A    between atoms: _116  and  _119
REMARK   50  A    between atoms: _119  and  _120
REMARK   51  A    between atoms: _125  and  _127
REMARK   52  A    between atoms: _127  and  _128
REMARK   53  A    between atoms: _127  and  _130
REMARK   54  A    between atoms: _133  and  _135
REMARK   55  A    between atoms: _135  and  _136
REMARK   56  A    between atoms: _138  and  _140
REMARK   57  A    between atoms: _140  and  _141
REMARK   58  A    between atoms: _144  and  _146
REMARK   59  A    between atoms: _146  and  _147
REMARK   60  A    between atoms: _146  and  _149
REMARK   61  A    between atoms: _149  and  _150
REMARK   62  A    between atoms: _150  and  _151
REMARK   63  A    between atoms: _153  and  _155
REMARK   64  A    between atoms: _155  and  _156
REMARK   65  A    between atoms: _155  and  _158
REMARK   66  A    between atoms: _158  and  _159
REMARK   67  A    between atoms: _159  and  _160
REMARK   68  A    between atoms: _163  and  _165
REMARK   69  A    between atoms: _165  and  _166
REMARK   70  A    between atoms: _165  and  _168
REMARK   71  A    between atoms: _168  and  _169
REMARK   72  A    between atoms: _174  and  _176
REMARK   73  A    between atoms: _176  and  _177
REMARK   74  A    between atoms: _176  and  _179
REMARK   75  A    between atoms: _179  and  _180
REMARK   76  A    between atoms: _183  and  _185
REMARK   77  A    between atoms: _185  and  _186
REMARK   78  A    between atoms: _185  and  _188
REMARK   79  A    between atoms: _188  and  _189
REMARK   80  A    between atoms: _195  and  _197
REMARK   81  A    between atoms: _197  and  _198
REMARK   82  A    between atoms: _197  and  _200
REMARK   83  A    between atoms: _200  and  _201
REMARK   84  A    between atoms: _206  and  _208
REMARK   85  A    between atoms: _208  and  _209
REMARK   86  A    between atoms: _208  and  _211
REMARK   87  A    between atoms: _211  and  _212
REMARK   88  A    between atoms: _217  and  _219
REMARK   89  A    between atoms: _219  and  _220
REMARK   90  A    between atoms: _219  and  _222
REMARK   91  A    between atoms: _222  and  _223
REMARK   92  A    between atoms: _225  and  _227
REMARK   93  A    between atoms: _227  and  _228
REMARK   94  A    between atoms: _227  and  _230
REMARK   95  A    between atoms: _230  and  _231
REMARK   96  A    between atoms: _237  and  _239
REMARK   97  A    between atoms: _239  and  _240
REMARK   98  A    between atoms: _243  and  _245
REMARK   99  A    between atoms: _245  and  _246
REMARK  100  A    between atoms: _245  and  _248
REMARK  101  A    between atoms: _248  and  _249
REMARK  102  A    between atoms: _249  and  _250
REMARK  103  A    between atoms: _250  and  _251
REMARK  104  A    between atoms: _260  and  _262
REMARK  105  A    between atoms: _262  and  _263
REMARK  106  A    between atoms: _262  and  _265
REMARK  107  A    between atoms: _265  and  _266
REMARK  108  A    between atoms: _269  and  _271
REMARK  109  A    between atoms: _271  and  _272
REMARK  110  A    between atoms: _271  and  _274
REMARK  111  A    between atoms: _274  and  _275
REMARK  112  A    between atoms: _278  and  _280
REMARK  113  A    between atoms: _280  and  _281
REMARK  114  A    between atoms: _280  and  _283
REMARK  115  A    between atoms: _283  and  _284
REMARK  116  A    between atoms: _287  and  _289
REMARK  117  A    between atoms: _289  and  _290
REMARK  118  A    between atoms: _289  and  _292
REMARK  119  A    between atoms: _295  and  _297
REMARK  120  A    between atoms: _297  and  _298
REMARK  121  A    between atoms: _297  and  _300
REMARK  122  A    between atoms: _303  and  _305
REMARK  123  A    between atoms: _305  and  _306
REMARK  124  A    between atoms: _308  and  _310
REMARK  125  A    between atoms: _310  and  _311
REMARK  126  A    between atoms: _310  and  _313
REMARK  127  A    between atoms: _313  and  _314
REMARK  128  A    between atoms: _318  and  ZN_601
REMARK  129  A    between atoms: _319  and  _321
REMARK  130  A    between atoms: _321  and  _322
REMARK  131  A    between atoms: _321  and  _324
REMARK  132  A    between atoms: _324  and  _325
REMARK  133  A    between atoms: _325  and  _326
REMARK  134  A    between atoms: _329  and  _331
REMARK  135  A    between atoms: _331  and  _332
REMARK  136  A    between atoms: _331  and  _334
REMARK  137  A    between atoms: _334  and  _335
REMARK  138  A    between atoms: _340  and  _341
REMARK  139  A    between atoms: _343  and  _345
REMARK  140  A    between atoms: _345  and  _346
REMARK  141  A    between atoms: _345  and  _348
REMARK  142  A    between atoms: _348  and  _349
REMARK  143  A    between atoms: _353  and  ZN_601
REMARK  144  A    between atoms: _354  and  _356
REMARK  145  A    between atoms: _356  and  _357
REMARK  146  A    between atoms: _356  and  _359
REMARK  147  A    between atoms: _359  and  _360
REMARK  148  A    between atoms: _365  and  _367
REMARK  149  A    between atoms: _367  and  _368
REMARK  150  A    between atoms: _367  and  _370
REMARK  151  A    between atoms: _370  and  _371
REMARK  152  A    between atoms: _381  and  _383
REMARK  153  A    between atoms: _383  and  _384
REMARK  154  A    between atoms: _383  and  _386
REMARK  155  A    between atoms: _386  and  _387
REMARK  156  A    between atoms: _390  and  _392
REMARK  157  A    between atoms: _392  and  _393
REMARK  158  A    between atoms: _392  and  _395
REMARK  159  A    between atoms: _395  and  _396
REMARK  160  A    between atoms: _396  and  _397
REMARK  161  A    between atoms: _397  and  _398
REMARK  162  A    between atoms: _398  and  _399
REMARK  163  A    between atoms: _403  and  _405
REMARK  164  A    between atoms: _405  and  _406
REMARK  165  A    between atoms: _405  and  _408
REMARK  166  A    between atoms: _408  and  _409
REMARK  167  A    between atoms: _409  and  _410
REMARK  168  A    between atoms: _410  and  _411
REMARK  169  A    between atoms: _411  and  ZN_601
REMARK  170  A    between atoms: _413  and  _415
REMARK  171  A    between atoms: _415  and  _416
REMARK  172  A    between atoms: _418  and  _420
REMARK  173  A    between atoms: _420  and  _421
REMARK  174  A    between atoms: _420  and  _423
REMARK  175  A    between atoms: _423  and  _424
REMARK  176  A    between atoms: _427  and  _429
REMARK  177  A    between atoms: _429  and  _430
REMARK  178  A    between atoms: _429  and  _432
REMARK  179  A    between atoms: _435  and  _437
REMARK  180  A    between atoms: _437  and  _438
REMARK  181  A    between atoms: _437  and  _440
REMARK  182  A    between atoms: _440  and  _441
REMARK  183  A    between atoms: _441  and  _442
REMARK  184  A    between atoms: _445  and  _447
REMARK  185  A    between atoms: _447  and  _448
REMARK  186  A    between atoms: _447  and  _450
REMARK  187  A    between atoms: _450  and  _451
REMARK  188  A    between atoms: _456  and  _458
REMARK  189  A    between atoms: _458  and  _459
REMARK  190  A    between atoms: _458  and  _461
REMARK  191  A    between atoms: _461  and  _462
REMARK  192  A    between atoms: _464  and  _466
REMARK  193  A    between atoms: _466  and  _467
REMARK  194  A    between atoms: _466  and  _469
REMARK  195  A    between atoms: _469  and  _470
REMARK  196  A    between atoms: _470  and  _471
REMARK  197  A    between atoms: _473  and  _475
REMARK  198  A    between atoms: _475  and  _476
REMARK  199  A    between atoms: _475  and  _478
REMARK  200  A    between atoms: _478  and  _479
REMARK  201  A    between atoms: _479  and  _480
REMARK  202  A    between atoms: _483  and  _485
REMARK  203  A    between atoms: _485  and  _486
REMARK  204  A    between atoms: _485  and  _488
REMARK  205  A    between atoms: _488  and  _489
REMARK  206  A    between atoms: _494  and  _496
REMARK  207  A    between atoms: _496  and  _497
REMARK  208  A    between atoms: _496  and  _499
REMARK  209  A    between atoms: _499  and  _500
REMARK  210  A    between atoms: _506  and  _508
REMARK  211  A    between atoms: _508  and  _509
REMARK  212  A    between atoms: _508  and  _511
REMARK  213  A    between atoms: _511  and  _512
REMARK  214  A    between atoms: _517  and  _518
REMARK  215  A    between atoms: _520  and  _522
REMARK  216  A    between atoms: _522  and  _523
REMARK  217  A    between atoms: _522  and  _525
REMARK  218  A    between atoms: _525  and  _526
REMARK  219  A    between atoms: _529  and  _531
REMARK  220  A    between atoms: _531  and  _532
REMARK  221  A    between atoms: _531  and  _534
REMARK  222  A    between atoms: _534  and  _535
REMARK  223  A    between atoms: _540  and  _541
REMARK  224  A    between atoms: _543  and  _545
REMARK  225  A    between atoms: _545  and  _546
REMARK  226  A    between atoms: _545  and  _548
REMARK  227  A    between atoms: _548  and  _549
REMARK  228  A    between atoms: _552  and  _554
REMARK  229  A    between atoms: _554  and  _555
REMARK  230  A    between atoms: _554  and  _557
REMARK  231  A    between atoms: _557  and  _558
REMARK  232  A    between atoms: _558  and  _559
REMARK  233  A    between atoms: _559  and  _560
REMARK  234  A    between atoms: _569  and  _571
REMARK  235  A    between atoms: _571  and  _572
REMARK  236  A    between atoms: _571  and  _574
REMARK  237  A    between atoms: _574  and  _575
REMARK  238  A    between atoms: _575  and  _576
REMARK  239  A    between atoms: _578  and  _580
REMARK  240  A    between atoms: _580  and  _581
REMARK  241  A    between atoms: _580  and  _583
REMARK  242  A    between atoms: _583  and  _584
REMARK  243  A    between atoms: _584  and  _585
REMARK  244  A    between atoms: _590  and  _592
REMARK  245  A    between atoms: _592  and  _593
REMARK  246  A    between atoms: _592  and  _595
REMARK  247  A    between atoms: _595  and  _596
REMARK                            x       y       z     vdW  Elec       q    Type
REMARK                         _______ _______ _______ _____ _____    ______ ____
ROOT
ATOM      1  O   HOH     1      19.667   8.046  13.165  0.00  0.00    +0.000 OA
ENDROOT
TORSDOF 0
REMARK  Name = ../refined-set-2016/3ebi/3ebi_pocket.pdb
REMARK  247 active torsions:
REMARK  status: ('A' for Active; 'I' for Inactive)
REMARK    1  A    between atoms: _1  and  _3
REMARK    2  A    between atoms: _3  and  _4
REMARK    3  A    between atoms: _7  and  _9
REMARK    4  A    between atoms: _9  and  _10
REMARK    5  A    between atoms: _9  and  _12
REMARK    6  A    between atoms: _12  and  _13
REMARK    7  A    between atoms: _16  and  _18
REMARK    8  A    between atoms: _18  and  _19
REMARK    9  A    between atoms: _18  and  _21
REMARK   10  A    between atoms: _21  and  _22
REMARK   11  A    between atoms: _25  and  _27
REMARK   12  A    between atoms: _27  and  _28
REMARK   13  A    between atoms: _30  and  _32
REMARK   14  A    between atoms: _32  and  _33
REMARK   15  A    between atoms: _32  and  _35
REMARK   16  A    between atoms: _35  and  _36
REMARK   17  A    between atoms: _36  and  _37
REMARK   18  A    between atoms: _42  and  _44
REMARK   19  A    between atoms: _44  and  _45
REMARK   20  A    between atoms: _44  and  _47
REMARK   21  A    between atoms: _49  and  _51
REMARK   22  A    between atoms: _51  and  _52
REMARK   23  A    between atoms: _51  and  _54
REMARK   24  A    between atoms: _54  and  _55
REMARK   25  A    between atoms: _55  and  _56
REMARK   26  A    between atoms: _59  and  _61
REMARK   27  A    between atoms: _61  and  _62
REMARK   28  A    between atoms: _65  and  _67
REMARK   29  A    between atoms: _67  and  _68
REMARK   30  A    between atoms: _67  and  _70
REMARK   31  A    between atoms: _70  and  _71
REMARK   32  A    between atoms: _74  and  _76
REMARK   33  A    between atoms: _76  and  _77
REMARK   34  A    between atoms: _79  and  _81
REMARK   35  A    between atoms: _81  and  _82
REMARK   36  A    between atoms: _81  and  _84
REMARK   37  A    between atoms: _84  and  _85
REMARK   38  A    between atoms: _90  and  _91
REMARK   39  A    between atoms: _93  and  _95
REMARK   40  A    between atoms: _95  and  _96
REMARK   41  A    between atoms: _95  and  _98
REMARK   42  A    between atoms: _98  and  _99
REMARK   43  A    between atoms: _102  and  _104
REMARK   44  A    between atoms: _104  and  _105
REMARK   45  A    between atoms: _104  and  _107
REMARK   46  A    between atoms: _107  and  _108
REMARK   47  A    between atoms: _114  and  _116
REMARK   48  A    between atoms: _116  and  _117
REMARK   49  A    between atoms: _116  and  _119
REMARK   50  A    between atoms: _119  and  _120
REMARK   51  A    between atoms: _125  and  _127
REMARK   52  A    between atoms: _127  and  _128
REMARK   53  A    between atoms: _127  and  _130
REMARK   54  A    between atoms: _133  and  _135
REMARK   55  A    between atoms: _135  and  _136
REMARK   56  A    between atoms: _138  and  _140
REMARK   57  A    between atoms: _140  and  _141
REMARK   58  A    between atoms: _144  and  _146
REMARK   59  A    between atoms: _146  and  _147
REMARK   60  A    between atoms: _146  and  _149
REMARK   61  A    between atoms: _149  and  _150
REMARK   62  A    between atoms: _150  and  _151
REMARK   63  A    between atoms: _153  and  _155
REMARK   64  A    between atoms: _155  and  _156
REMARK   65  A    between atoms: _155  and  _158
REMARK   66  A    between atoms: _158  and  _159
REMARK   67  A    between atoms: _159  and  _160
REMARK   68  A    between atoms: _163  and  _165
REMARK   69  A    between atoms: _165  and  _166
REMARK   70  A    between atoms: _165  and  _168
REMARK   71  A    between atoms: _168  and  _169
REMARK   72  A    between atoms: _174  and  _176
REMARK   73  A    between atoms: _176  and  _177
REMARK   74  A    between atoms: _176  and  _179
REMARK   75  A    between atoms: _179  and  _180
REMARK   76  A    between atoms: _183  and  _185
REMARK   77  A    between atoms: _185  and  _186
REMARK   78  A    between atoms: _185  and  _188
REMARK   79  A    between atoms: _188  and  _189
REMARK   80  A    between atoms: _195  and  _197
REMARK   81  A    between atoms: _197  and  _198
REMARK   82  A    between atoms: _197  and  _200
REMARK   83  A    between atoms: _200  and  _201
REMARK   84  A    between atoms: _206  and  _208
REMARK   85  A    between atoms: _208  and  _209
REMARK   86  A    between atoms: _208  and  _211
REMARK   87  A    between atoms: _211  and  _212
REMARK   88  A    between atoms: _217  and  _219
REMARK   89  A    between atoms: _219  and  _220
REMARK   90  A    between atoms: _219  and  _222
REMARK   91  A    between atoms: _222  and  _223
REMARK   92  A    between atoms: _225  and  _227
REMARK   93  A    between atoms: _227  and  _228
REMARK   94  A    between atoms: _227  and  _230
REMARK   95  A    between atoms: _230  and  _231
REMARK   96  A    between atoms: _237  and  _239
REMARK   97  A    between atoms: _239  and  _240
REMARK   98  A    between atoms: _243  and  _245
REMARK   99  A    between atoms: _245  and  _246
REMARK  100  A    between atoms: _245  and  _248
REMARK  101  A    between atoms: _248  and  _249
REMARK  102  A    between atoms: _249  and  _250
REMARK  103  A    between atoms: _250  and  _251
REMARK  104  A    between atoms: _260  and  _262
REMARK  105  A    between atoms: _262  and  _263
REMARK  106  A    between atoms: _262  and  _265
REMARK  107  A    between atoms: _265  and  _266
REMARK  108  A    between atoms: _269  and  _271
REMARK  109  A    between atoms: _271  and  _272
REMARK  110  A    between atoms: _271  and  _274
REMARK  111  A    between atoms: _274  and  _275
REMARK  112  A    between atoms: _278  and  _280
REMARK  113  A    between atoms: _280  and  _281
REMARK  114  A    between atoms: _280  and  _283
REMARK  115  A    between atoms: _283  and  _284
REMARK  116  A    between atoms: _287  and  _289
REMARK  117  A    between atoms: _289  and  _290
REMARK  118  A    between atoms: _289  and  _292
REMARK  119  A    between atoms: _295  and  _297
REMARK  120  A    between atoms: _297  and  _298
REMARK  121  A    between atoms: _297  and  _300
REMARK  122  A    between atoms: _303  and  _305
REMARK  123  A    between atoms: _305  and  _306
REMARK  124  A    between atoms: _308  and  _310
REMARK  125  A    between atoms: _310  and  _311
REMARK  126  A    between atoms: _310  and  _313
REMARK  127  A    between atoms: _313  and  _314
REMARK  128  A    between atoms: _318  and  ZN_601
REMARK  129  A    between atoms: _319  and  _321
REMARK  130  A    between atoms: _321  and  _322
REMARK  131  A    between atoms: _321  and  _324
REMARK  132  A    between atoms: _324  and  _325
REMARK  133  A    between atoms: _325  and  _326
REMARK  134  A    between atoms: _329  and  _331
REMARK  135  A    between atoms: _331  and  _332
REMARK  136  A    between atoms: _331  and  _334
REMARK  137  A    between atoms: _334  and  _335
REMARK  138  A    between atoms: _340  and  _341
REMARK  139  A    between atoms: _343  and  _345
REMARK  140  A    between atoms: _345  and  _346
REMARK  141  A    between atoms: _345  and  _348
REMARK  142  A    between atoms: _348  and  _349
REMARK  143  A    between atoms: _353  and  ZN_601
REMARK  144  A    between atoms: _354  and  _356
REMARK  145  A    between atoms: _356  and  _357
REMARK  146  A    between atoms: _356  and  _359
REMARK  147  A    between atoms: _359  and  _360
REMARK  148  A    between atoms: _365  and  _367
REMARK  149  A    between atoms: _367  and  _368
REMARK  150  A    between atoms: _367  and  _370
REMARK  151  A    between atoms: _370  and  _371
REMARK  152  A    between atoms: _381  and  _383
REMARK  153  A    between atoms: _383  and  _384
REMARK  154  A    between atoms: _383  and  _386
REMARK  155  A    between atoms: _386  and  _387
REMARK  156  A    between atoms: _390  and  _392
REMARK  157  A    between atoms: _392  and  _393
REMARK  158  A    between atoms: _392  and  _395
REMARK  159  A    between atoms: _395  and  _396
REMARK  160  A    between atoms: _396  and  _397
REMARK  161  A    between atoms: _397  and  _398
REMARK  162  A    between atoms: _398  and  _399
REMARK  163  A    between atoms: _403  and  _405
REMARK  164  A    between atoms: _405  and  _406
REMARK  165  A    between atoms: _405  and  _408
REMARK  166  A    between atoms: _408  and  _409
REMARK  167  A    between atoms: _409  and  _410
REMARK  168  A    between atoms: _410  and  _411
REMARK  169  A    between atoms: _411  and  ZN_601
REMARK  170  A    between atoms: _413  and  _415
REMARK  171  A    between atoms: _415  and  _416
REMARK  172  A    between atoms: _418  and  _420
REMARK  173  A    between atoms: _420  and  _421
REMARK  174  A    between atoms: _420  and  _423
REMARK  175  A    between atoms: _423  and  _424
REMARK  176  A    between atoms: _427  and  _429
REMARK  177  A    between atoms: _429  and  _430
REMARK  178  A    between atoms: _429  and  _432
REMARK  179  A    between atoms: _435  and  _437
REMARK  180  A    between atoms: _437  and  _438
REMARK  181  A    between atoms: _437  and  _440
REMARK  182  A    between atoms: _440  and  _441
REMARK  183  A    between atoms: _441  and  _442
REMARK  184  A    between atoms: _445  and  _447
REMARK  185  A    between atoms: _447  and  _448
REMARK  186  A    between atoms: _447  and  _450
REMARK  187  A    between atoms: _450  and  _451
REMARK  188  A    between atoms: _456  and  _458
REMARK  189  A    between atoms: _458  and  _459
REMARK  190  A    between atoms: _458  and  _461
REMARK  191  A    between atoms: _461  and  _462
REMARK  192  A    between atoms: _464  and  _466
REMARK  193  A    between atoms: _466  and  _467
REMARK  194  A    between atoms: _466  and  _469
REMARK  195  A    between atoms: _469  and  _470
REMARK  196  A    between atoms: _470  and  _471
REMARK  197  A    between atoms: _473  and  _475
REMARK  198  A    between atoms: _475  and  _476
REMARK  199  A    between atoms: _475  and  _478
REMARK  200  A    between atoms: _478  and  _479
REMARK  201  A    between atoms: _479  and  _480
REMARK  202  A    between atoms: _483  and  _485
REMARK  203  A    between atoms: _485  and  _486
REMARK  204  A    between atoms: _485  and  _488
REMARK  205  A    between atoms: _488  and  _489
REMARK  206  A    between atoms: _494  and  _496
REMARK  207  A    between atoms: _496  and  _497
REMARK  208  A    between atoms: _496  and  _499
REMARK  209  A    between atoms: _499  and  _500
REMARK  210  A    between atoms: _506  and  _508
REMARK  211  A    between atoms: _508  and  _509
REMARK  212  A    between atoms: _508  and  _511
REMARK  213  A    between atoms: _511  and  _512
REMARK  214  A    between atoms: _517  and  _518
REMARK  215  A    between atoms: _520  and  _522
REMARK  216  A    between atoms: _522  and  _523
REMARK  217  A    between atoms: _522  and  _525
REMARK  218  A    between atoms: _525  and  _526
REMARK  219  A    between atoms: _529  and  _531
REMARK  220  A    between atoms: _531  and  _532
REMARK  221  A    between atoms: _531  and  _534
REMARK  222  A    between atoms: _534  and  _535
REMARK  223  A    between atoms: _540  and  _541
REMARK  224  A    between atoms: _543  and  _545
REMARK  225  A    between atoms: _545  and  _546
REMARK  226  A    between atoms: _545  and  _548
REMARK  227  A    between atoms: _548  and  _549
REMARK  228  A    between atoms: _552  and  _554
REMARK  229  A    between atoms: _554  and  _555
REMARK  230  A    between atoms: _554  and  _557
REMARK  231  A    between atoms: _557  and  _558
REMARK  232  A    between atoms: _558  and  _559
REMARK  233  A    between atoms: _559  and  _560
REMARK  234  A    between atoms: _569  and  _571
REMARK  235  A    between atoms: _571  and  _572
REMARK  236  A    between atoms: _571  and  _574
REMARK  237  A    between atoms: _574  and  _575
REMARK  238  A    between atoms: _575  and  _576
REMARK  239  A    between atoms: _578  and  _580
REMARK  240  A    between atoms: _580  and  _581
REMARK  241  A    between atoms: _580  and  _583
REMARK  242  A    between atoms: _583  and  _584
REMARK  243  A    between atoms: _584  and  _585
REMARK  244  A    between atoms: _590  and  _592
REMARK  245  A    between atoms: _592  and  _593
REMARK  246  A    between atoms: _592  and  _595
REMARK  247  A    between atoms: _595  and  _596
REMARK                            x       y       z     vdW  Elec       q    Type
REMARK                         _______ _______ _______ _____ _____    ______ ____
ROOT
ATOM      1  O   HOH     1      13.203   6.131  24.036  0.00  0.00    +0.000 OA
ENDROOT
TORSDOF 0
