REMARK  Name = ../refined-set-2016/3eb1/3eb1_pocket.pdb
REMARK  141 active torsions:
REMARK  status: ('A' for Active; 'I' for Inactive)
REMARK    1  A    between atoms: _1  and  _3
REMARK    2  A    between atoms: _3  and  _4
REMARK    3  A    between atoms: _3  and  _6
REMARK    4  A    between atoms: _6  and  _7
REMARK    5  A    between atoms: _12  and  _13
REMARK    6  A    between atoms: _15  and  _17
REMARK    7  A    between atoms: _17  and  _18
REMARK    8  A    between atoms: _17  and  _20
REMARK    9  A    between atoms: _20  and  _21
REMARK   10  A    between atoms: _21  and  _22
REMARK   11  A    between atoms: _22  and  _23
REMARK   12  A    between atoms: _32  and  _34
REMARK   13  A    between atoms: _34  and  _35
REMARK   14  A    between atoms: _34  and  _37
REMARK   15  A    between atoms: _37  and  _38
REMARK   16  A    between atoms: _38  and  _39
REMARK   17  A    between atoms: _39  and  _40
REMARK   18  A    between atoms: _49  and  _51
REMARK   19  A    between atoms: _51  and  _52
REMARK   20  A    between atoms: _51  and  _54
REMARK   21  A    between atoms: _54  and  _55
REMARK   22  A    between atoms: _60  and  _61
REMARK   23  A    between atoms: _63  and  _65
REMARK   24  A    between atoms: _65  and  _66
REMARK   25  A    between atoms: _65  and  _68
REMARK   26  A    between atoms: _68  and  _69
REMARK   27  A    between atoms: _69  and  _70
REMARK   28  A    between atoms: _70  and  _71
REMARK   29  A    between atoms: _80  and  _82
REMARK   30  A    between atoms: _82  and  _83
REMARK   31  A    between atoms: _82  and  _85
REMARK   32  A    between atoms: _85  and  _86
REMARK   33  A    between atoms: _89  and  _91
REMARK   34  A    between atoms: _91  and  _92
REMARK   35  A    between atoms: _91  and  _94
REMARK   36  A    between atoms: _97  and  _99
REMARK   37  A    between atoms: _99  and  _100
REMARK   38  A    between atoms: _102  and  _104
REMARK   39  A    between atoms: _104  and  _105
REMARK   40  A    between atoms: _104  and  _107
REMARK   41  A    between atoms: _107  and  _108
REMARK   42  A    between atoms: _111  and  _113
REMARK   43  A    between atoms: _113  and  _114
REMARK   44  A    between atoms: _113  and  _116
REMARK   45  A    between atoms: _116  and  _117
REMARK   46  A    between atoms: _122  and  _124
REMARK   47  A    between atoms: _124  and  _125
REMARK   48  A    between atoms: _124  and  _127
REMARK   49  A    between atoms: _127  and  _128
REMARK   50  A    between atoms: _128  and  _129
REMARK   51  A    between atoms: _132  and  _134
REMARK   52  A    between atoms: _134  and  _135
REMARK   53  A    between atoms: _134  and  _137
REMARK   54  A    between atoms: _137  and  _138
REMARK   55  A    between atoms: _138  and  _139
REMARK   56  A    between atoms: _139  and  _140
REMARK   57  A    between atoms: _140  and  _141
REMARK   58  A    between atoms: _145  and  _147
REMARK   59  A    between atoms: _147  and  _148
REMARK   60  A    between atoms: _147  and  _150
REMARK   61  A    between atoms: _150  and  _151
REMARK   62  A    between atoms: _151  and  _152
REMARK   63  A    between atoms: _152  and  _153
REMARK   64  A    between atoms: _153  and  _154
REMARK   65  A    between atoms: _158  and  _160
REMARK   66  A    between atoms: _160  and  _161
REMARK   67  A    between atoms: _160  and  _163
REMARK   68  A    between atoms: _163  and  _164
REMARK   69  A    between atoms: _175  and  _176
REMARK   70  A    between atoms: _181  and  _183
REMARK   71  A    between atoms: _183  and  _184
REMARK   72  A    between atoms: _183  and  _186
REMARK   73  A    between atoms: _186  and  _187
REMARK   74  A    between atoms: _190  and  _192
REMARK   75  A    between atoms: _192  and  _193
REMARK   76  A    between atoms: _195  and  _197
REMARK   77  A    between atoms: _197  and  _198
REMARK   78  A    between atoms: _197  and  _200
REMARK   79  A    between atoms: _203  and  _205
REMARK   80  A    between atoms: _205  and  _206
REMARK   81  A    between atoms: _205  and  _208
REMARK   82  A    between atoms: _210  and  _212
REMARK   83  A    between atoms: _212  and  _213
REMARK   84  A    between atoms: _212  and  _215
REMARK   85  A    between atoms: _215  and  _216
REMARK   86  A    between atoms: _218  and  _220
REMARK   87  A    between atoms: _220  and  _221
REMARK   88  A    between atoms: _224  and  _226
REMARK   89  A    between atoms: _226  and  _227
REMARK   90  A    between atoms: _229  and  _231
REMARK   91  A    between atoms: _231  and  _232
REMARK   92  A    between atoms: _231  and  _234
REMARK   93  A    between atoms: _234  and  _235
REMARK   94  A    between atoms: _238  and  _240
REMARK   95  A    between atoms: _240  and  _241
REMARK   96  A    between atoms: _243  and  _245
REMARK   97  A    between atoms: _245  and  _246
REMARK   98  A    between atoms: _245  and  _248
REMARK   99  A    between atoms: _248  and  _249
REMARK  100  A    between atoms: _249  and  _250
REMARK  101  A    between atoms: _250  and  _251
REMARK  102  A    between atoms: _260  and  _262
REMARK  103  A    between atoms: _262  and  _263
REMARK  104  A    between atoms: _262  and  _265
REMARK  105  A    between atoms: _265  and  _266
REMARK  106  A    between atoms: _268  and  _270
REMARK  107  A    between atoms: _270  and  _271
REMARK  108  A    between atoms: _273  and  _275
REMARK  109  A    between atoms: _275  and  _276
REMARK  110  A    between atoms: _275  and  _278
REMARK  111  A    between atoms: _278  and  _279
REMARK  112  A    between atoms: _282  and  _284
REMARK  113  A    between atoms: _284  and  _285
REMARK  114  A    between atoms: _284  and  _287
REMARK  115  A    between atoms: _287  and  _288
REMARK  116  A    between atoms: _288  and  _289
REMARK  117  A    between atoms: _289  and  _290
REMARK  118  A    between atoms: _299  and  _301
REMARK  119  A    between atoms: _301  and  _302
REMARK  120  A    between atoms: _304  and  _306
REMARK  121  A    between atoms: _306  and  _307
REMARK  122  A    between atoms: _306  and  _309
REMARK  123  A    between atoms: _309  and  _310
REMARK  124  A    between atoms: _313  and  _315
REMARK  125  A    between atoms: _315  and  _316
REMARK  126  A    between atoms: _315  and  _318
REMARK  127  A    between atoms: _318  and  _319
REMARK  128  A    between atoms: _322  and  _324
REMARK  129  A    between atoms: _324  and  _325
REMARK  130  A    between atoms: _324  and  _327
REMARK  131  A    between atoms: _327  and  _328
REMARK  132  A    between atoms: _328  and  _329
REMARK  133  A    between atoms: _334  and  _336
REMARK  134  A    between atoms: _336  and  _337
REMARK  135  A    between atoms: _336  and  _339
REMARK  136  A    between atoms: _339  and  _340
REMARK  137  A    between atoms: _343  and  _345
REMARK  138  A    between atoms: _345  and  _346
REMARK  139  A    between atoms: _345  and  _348
REMARK  140  A    between atoms: _348  and  _349
REMARK  141  A    between atoms: _349  and  _350
REMARK                            x       y       z     vdW  Elec       q    Type
REMARK                         _______ _______ _______ _____ _____    ______ ____
ROOT
ATOM      1  CG  TYR A   1      59.280  11.326   5.993  0.00  0.00    -0.020 A 
ATOM      2  CD2 TYR A   1      58.399  11.373   7.067  0.00  0.00    -0.001 A 
ATOM      3  CE2 TYR A   1      57.035  11.164   6.892  0.00  0.00    +0.036 A 
ATOM      4  CZ  TYR A   1      56.539  10.905   5.628  0.00  0.00    +0.134 A 
ATOM      5  CE1 TYR A   1      57.395  10.854   4.542  0.00  0.00    +0.036 A 
ATOM      6  CD1 TYR A   1      58.761  11.065   4.730  0.00  0.00    -0.001 A 
ENDROOT
BRANCH   4   7
ATOM      7  OH  TYR A   1      55.187  10.698   5.458  0.00  0.00    -0.506 OA
ATOM      8  HH  TYR A   1      54.731  10.770   6.334  0.00  0.00    +0.292 HD
ENDBRANCH   4   7
BRANCH   1   9
ATOM      9  CB  TYR A   1      60.762  11.528   6.199  0.00  0.00    +0.051 C 
BRANCH   9  10
ATOM     10  CA  TYR A   1      61.411  10.428   7.038  0.00  0.00    +0.137 C 
BRANCH  10  11
ATOM     11  N   TYR A   1      62.839  10.673   7.177  0.00  0.00    -0.239 NA
ATOM     12  H   TYR A   1      63.243  11.533   6.754  0.00  0.00    +0.142 HD
ENDBRANCH  10  11
BRANCH  10  13
ATOM     13  C   TYR A   1      61.096   9.082   6.407  0.00  0.00    +0.224 C 
ATOM     14  O   TYR A   1      60.156   8.403   6.823  0.00  0.00    -0.287 OA
ENDBRANCH  10  13
ENDBRANCH   9  10
ENDBRANCH   1   9
TORSDOF 5
REMARK  Name = ../refined-set-2016/3eb1/3eb1_pocket.pdb
REMARK  141 active torsions:
REMARK  status: ('A' for Active; 'I' for Inactive)
REMARK    1  A    between atoms: _1  and  _3
REMARK    2  A    between atoms: _3  and  _4
REMARK    3  A    between atoms: _3  and  _6
REMARK    4  A    between atoms: _6  and  _7
REMARK    5  A    between atoms: _12  and  _13
REMARK    6  A    between atoms: _15  and  _17
REMARK    7  A    between atoms: _17  and  _18
REMARK    8  A    between atoms: _17  and  _20
REMARK    9  A    between atoms: _20  and  _21
REMARK   10  A    between atoms: _21  and  _22
REMARK   11  A    between atoms: _22  and  _23
REMARK   12  A    between atoms: _32  and  _34
REMARK   13  A    between atoms: _34  and  _35
REMARK   14  A    between atoms: _34  and  _37
REMARK   15  A    between atoms: _37  and  _38
REMARK   16  A    between atoms: _38  and  _39
REMARK   17  A    between atoms: _39  and  _40
REMARK   18  A    between atoms: _49  and  _51
REMARK   19  A    between atoms: _51  and  _52
REMARK   20  A    between atoms: _51  and  _54
REMARK   21  A    between atoms: _54  and  _55
REMARK   22  A    between atoms: _60  and  _61
REMARK   23  A    between atoms: _63  and  _65
REMARK   24  A    between atoms: _65  and  _66
REMARK   25  A    between atoms: _65  and  _68
REMARK   26  A    between atoms: _68  and  _69
REMARK   27  A    between atoms: _69  and  _70
REMARK   28  A    between atoms: _70  and  _71
REMARK   29  A    between atoms: _80  and  _82
REMARK   30  A    between atoms: _82  and  _83
REMARK   31  A    between atoms: _82  and  _85
REMARK   32  A    between atoms: _85  and  _86
REMARK   33  A    between atoms: _89  and  _91
REMARK   34  A    between atoms: _91  and  _92
REMARK   35  A    between atoms: _91  and  _94
REMARK   36  A    between atoms: _97  and  _99
REMARK   37  A    between atoms: _99  and  _100
REMARK   38  A    between atoms: _102  and  _104
REMARK   39  A    between atoms: _104  and  _105
REMARK   40  A    between atoms: _104  and  _107
REMARK   41  A    between atoms: _107  and  _108
REMARK   42  A    between atoms: _111  and  _113
REMARK   43  A    between atoms: _113  and  _114
REMARK   44  A    between atoms: _113  and  _116
REMARK   45  A    between atoms: _116  and  _117
REMARK   46  A    between atoms: _122  and  _124
REMARK   47  A    between atoms: _124  and  _125
REMARK   48  A    between atoms: _124  and  _127
REMARK   49  A    between atoms: _127  and  _128
REMARK   50  A    between atoms: _128  and  _129
REMARK   51  A    between atoms: _132  and  _134
REMARK   52  A    between atoms: _134  and  _135
REMARK   53  A    between atoms: _134  and  _137
REMARK   54  A    between atoms: _137  and  _138
REMARK   55  A    between atoms: _138  and  _139
REMARK   56  A    between atoms: _139  and  _140
REMARK   57  A    between atoms: _140  and  _141
REMARK   58  A    between atoms: _145  and  _147
REMARK   59  A    between atoms: _147  and  _148
REMARK   60  A    between atoms: _147  and  _150
REMARK   61  A    between atoms: _150  and  _151
REMARK   62  A    between atoms: _151  and  _152
REMARK   63  A    between atoms: _152  and  _153
REMARK   64  A    between atoms: _153  and  _154
REMARK   65  A    between atoms: _158  and  _160
REMARK   66  A    between atoms: _160  and  _161
REMARK   67  A    between atoms: _160  and  _163
REMARK   68  A    between atoms: _163  and  _164
REMARK   69  A    between atoms: _175  and  _176
REMARK   70  A    between atoms: _181  and  _183
REMARK   71  A    between atoms: _183  and  _184
REMARK   72  A    between atoms: _183  and  _186
REMARK   73  A    between atoms: _186  and  _187
REMARK   74  A    between atoms: _190  and  _192
REMARK   75  A    between atoms: _192  and  _193
REMARK   76  A    between atoms: _195  and  _197
REMARK   77  A    between atoms: _197  and  _198
REMARK   78  A    between atoms: _197  and  _200
REMARK   79  A    between atoms: _203  and  _205
REMARK   80  A    between atoms: _205  and  _206
REMARK   81  A    between atoms: _205  and  _208
REMARK   82  A    between atoms: _210  and  _212
REMARK   83  A    between atoms: _212  and  _213
REMARK   84  A    between atoms: _212  and  _215
REMARK   85  A    between atoms: _215  and  _216
REMARK   86  A    between atoms: _218  and  _220
REMARK   87  A    between atoms: _220  and  _221
REMARK   88  A    between atoms: _224  and  _226
REMARK   89  A    between atoms: _226  and  _227
REMARK   90  A    between atoms: _229  and  _231
REMARK   91  A    between atoms: _231  and  _232
REMARK   92  A    between atoms: _231  and  _234
REMARK   93  A    between atoms: _234  and  _235
REMARK   94  A    between atoms: _238  and  _240
REMARK   95  A    between atoms: _240  and  _241
REMARK   96  A    between atoms: _243  and  _245
REMARK   97  A    between atoms: _245  and  _246
REMARK   98  A    between atoms: _245  and  _248
REMARK   99  A    between atoms: _248  and  _249
REMARK  100  A    between atoms: _249  and  _250
REMARK  101  A    between atoms: _250  and  _251
REMARK  102  A    between atoms: _260  and  _262
REMARK  103  A    between atoms: _262  and  _263
REMARK  104  A    between atoms: _262  and  _265
REMARK  105  A    between atoms: _265  and  _266
REMARK  106  A    between atoms: _268  and  _270
REMARK  107  A    between atoms: _270  and  _271
REMARK  108  A    between atoms: _273  and  _275
REMARK  109  A    between atoms: _275  and  _276
REMARK  110  A    between atoms: _275  and  _278
REMARK  111  A    between atoms: _278  and  _279
REMARK  112  A    between atoms: _282  and  _284
REMARK  113  A    between atoms: _284  and  _285
REMARK  114  A    between atoms: _284  and  _287
REMARK  115  A    between atoms: _287  and  _288
REMARK  116  A    between atoms: _288  and  _289
REMARK  117  A    between atoms: _289  and  _290
REMARK  118  A    between atoms: _299  and  _301
REMARK  119  A    between atoms: _301  and  _302
REMARK  120  A    between atoms: _304  and  _306
REMARK  121  A    between atoms: _306  and  _307
REMARK  122  A    between atoms: _306  and  _309
REMARK  123  A    between atoms: _309  and  _310
REMARK  124  A    between atoms: _313  and  _315
REMARK  125  A    between atoms: _315  and  _316
REMARK  126  A    between atoms: _315  and  _318
REMARK  127  A    between atoms: _318  and  _319
REMARK  128  A    between atoms: _322  and  _324
REMARK  129  A    between atoms: _324  and  _325
REMARK  130  A    between atoms: _324  and  _327
REMARK  131  A    between atoms: _327  and  _328
REMARK  132  A    between atoms: _328  and  _329
REMARK  133  A    between atoms: _334  and  _336
REMARK  134  A    between atoms: _336  and  _337
REMARK  135  A    between atoms: _336  and  _339
REMARK  136  A    between atoms: _339  and  _340
REMARK  137  A    between atoms: _343  and  _345
REMARK  138  A    between atoms: _345  and  _346
REMARK  139  A    between atoms: _345  and  _348
REMARK  140  A    between atoms: _348  and  _349
REMARK  141  A    between atoms: _349  and  _350
REMARK                            x       y       z     vdW  Elec       q    Type
REMARK                         _______ _______ _______ _____ _____    ______ ____
ROOT
ATOM      1  NE  ARG A   1      54.881   6.585   4.383  0.00  0.00    -0.265 N 
ATOM      2  CZ  ARG A   1      53.834   7.006   5.099  0.00  0.00    +0.342 C 
ATOM      3  NH2 ARG A   1      53.860   8.191   5.697  0.00  0.00    -0.292 N 
ATOM      4 HH21 ARG A   1      53.041   8.511   6.252  0.00  0.00    +0.255 HD
ATOM      5 HH22 ARG A   1      54.699   8.799   5.610  0.00  0.00    +0.255 HD
ATOM      6  NH1 ARG A   1      52.761   6.233   5.235  0.00  0.00    -0.292 N 
ATOM      7 HH11 ARG A   1      51.949   6.565   5.793  0.00  0.00    +0.255 HD
ATOM      8 HH12 ARG A   1      52.734   5.297   4.783  0.00  0.00    +0.255 HD
ATOM      9  HE  ARG A   1      54.809   5.652   3.930  0.00  0.00    +0.259 HD
ENDROOT
BRANCH   1  10
ATOM     10  CD  ARG A   1      56.127   7.342   4.187  0.00  0.00    +0.174 C 
BRANCH  10  11
ATOM     11  CG  ARG A   1      57.065   7.281   5.409  0.00  0.00    +0.045 C 
BRANCH  11  12
ATOM     12  CB  ARG A   1      57.702   5.899   5.561  0.00  0.00    +0.029 C 
BRANCH  12  13
ATOM     13  CA  ARG A   1      57.737   5.348   6.994  0.00  0.00    +0.133 C 
BRANCH  13  14
ATOM     14  N   ARG A   1      58.841   5.924   7.756  0.00  0.00    -0.239 NA
ATOM     15  H   ARG A   1      59.400   6.699   7.345  0.00  0.00    +0.142 HD
ENDBRANCH  13  14
BRANCH  13  16
ATOM     16  C   ARG A   1      57.899   3.833   6.946  0.00  0.00    +0.224 C 
ATOM     17  O   ARG A   1      56.920   3.095   6.958  0.00  0.00    -0.287 OA
ENDBRANCH  13  16
ENDBRANCH  12  13
ENDBRANCH  11  12
ENDBRANCH  10  11
ENDBRANCH   1  10
TORSDOF 6
REMARK  Name = ../refined-set-2016/3eb1/3eb1_pocket.pdb
REMARK  141 active torsions:
REMARK  status: ('A' for Active; 'I' for Inactive)
REMARK    1  A    between atoms: _1  and  _3
REMARK    2  A    between atoms: _3  and  _4
REMARK    3  A    between atoms: _3  and  _6
REMARK    4  A    between atoms: _6  and  _7
REMARK    5  A    between atoms: _12  and  _13
REMARK    6  A    between atoms: _15  and  _17
REMARK    7  A    between atoms: _17  and  _18
REMARK    8  A    between atoms: _17  and  _20
REMARK    9  A    between atoms: _20  and  _21
REMARK   10  A    between atoms: _21  and  _22
REMARK   11  A    between atoms: _22  and  _23
REMARK   12  A    between atoms: _32  and  _34
REMARK   13  A    between atoms: _34  and  _35
REMARK   14  A    between atoms: _34  and  _37
REMARK   15  A    between atoms: _37  and  _38
REMARK   16  A    between atoms: _38  and  _39
REMARK   17  A    between atoms: _39  and  _40
REMARK   18  A    between atoms: _49  and  _51
REMARK   19  A    between atoms: _51  and  _52
REMARK   20  A    between atoms: _51  and  _54
REMARK   21  A    between atoms: _54  and  _55
REMARK   22  A    between atoms: _60  and  _61
REMARK   23  A    between atoms: _63  and  _65
REMARK   24  A    between atoms: _65  and  _66
REMARK   25  A    between atoms: _65  and  _68
REMARK   26  A    between atoms: _68  and  _69
REMARK   27  A    between atoms: _69  and  _70
REMARK   28  A    between atoms: _70  and  _71
REMARK   29  A    between atoms: _80  and  _82
REMARK   30  A    between atoms: _82  and  _83
REMARK   31  A    between atoms: _82  and  _85
REMARK   32  A    between atoms: _85  and  _86
REMARK   33  A    between atoms: _89  and  _91
REMARK   34  A    between atoms: _91  and  _92
REMARK   35  A    between atoms: _91  and  _94
REMARK   36  A    between atoms: _97  and  _99
REMARK   37  A    between atoms: _99  and  _100
REMARK   38  A    between atoms: _102  and  _104
REMARK   39  A    between atoms: _104  and  _105
REMARK   40  A    between atoms: _104  and  _107
REMARK   41  A    between atoms: _107  and  _108
REMARK   42  A    between atoms: _111  and  _113
REMARK   43  A    between atoms: _113  and  _114
REMARK   44  A    between atoms: _113  and  _116
REMARK   45  A    between atoms: _116  and  _117
REMARK   46  A    between atoms: _122  and  _124
REMARK   47  A    between atoms: _124  and  _125
REMARK   48  A    between atoms: _124  and  _127
REMARK   49  A    between atoms: _127  and  _128
REMARK   50  A    between atoms: _128  and  _129
REMARK   51  A    between atoms: _132  and  _134
REMARK   52  A    between atoms: _134  and  _135
REMARK   53  A    between atoms: _134  and  _137
REMARK   54  A    between atoms: _137  and  _138
REMARK   55  A    between atoms: _138  and  _139
REMARK   56  A    between atoms: _139  and  _140
REMARK   57  A    between atoms: _140  and  _141
REMARK   58  A    between atoms: _145  and  _147
REMARK   59  A    between atoms: _147  and  _148
REMARK   60  A    between atoms: _147  and  _150
REMARK   61  A    between atoms: _150  and  _151
REMARK   62  A    between atoms: _151  and  _152
REMARK   63  A    between atoms: _152  and  _153
REMARK   64  A    between atoms: _153  and  _154
REMARK   65  A    between atoms: _158  and  _160
REMARK   66  A    between atoms: _160  and  _161
REMARK   67  A    between atoms: _160  and  _163
REMARK   68  A    between atoms: _163  and  _164
REMARK   69  A    between atoms: _175  and  _176
REMARK   70  A    between atoms: _181  and  _183
REMARK   71  A    between atoms: _183  and  _184
REMARK   72  A    between atoms: _183  and  _186
REMARK   73  A    between atoms: _186  and  _187
REMARK   74  A    between atoms: _190  and  _192
REMARK   75  A    between atoms: _192  and  _193
REMARK   76  A    between atoms: _195  and  _197
REMARK   77  A    between atoms: _197  and  _198
REMARK   78  A    between atoms: _197  and  _200
REMARK   79  A    between atoms: _203  and  _205
REMARK   80  A    between atoms: _205  and  _206
REMARK   81  A    between atoms: _205  and  _208
REMARK   82  A    between atoms: _210  and  _212
REMARK   83  A    between atoms: _212  and  _213
REMARK   84  A    between atoms: _212  and  _215
REMARK   85  A    between atoms: _215  and  _216
REMARK   86  A    between atoms: _218  and  _220
REMARK   87  A    between atoms: _220  and  _221
REMARK   88  A    between atoms: _224  and  _226
REMARK   89  A    between atoms: _226  and  _227
REMARK   90  A    between atoms: _229  and  _231
REMARK   91  A    between atoms: _231  and  _232
REMARK   92  A    between atoms: _231  and  _234
REMARK   93  A    between atoms: _234  and  _235
REMARK   94  A    between atoms: _238  and  _240
REMARK   95  A    between atoms: _240  and  _241
REMARK   96  A    between atoms: _243  and  _245
REMARK   97  A    between atoms: _245  and  _246
REMARK   98  A    between atoms: _245  and  _248
REMARK   99  A    between atoms: _248  and  _249
REMARK  100  A    between atoms: _249  and  _250
REMARK  101  A    between atoms: _250  and  _251
REMARK  102  A    between atoms: _260  and  _262
REMARK  103  A    between atoms: _262  and  _263
REMARK  104  A    between atoms: _262  and  _265
REMARK  105  A    between atoms: _265  and  _266
REMARK  106  A    between atoms: _268  and  _270
REMARK  107  A    between atoms: _270  and  _271
REMARK  108  A    between atoms: _273  and  _275
REMARK  109  A    between atoms: _275  and  _276
REMARK  110  A    between atoms: _275  and  _278
REMARK  111  A    between atoms: _278  and  _279
REMARK  112  A    between atoms: _282  and  _284
REMARK  113  A    between atoms: _284  and  _285
REMARK  114  A    between atoms: _284  and  _287
REMARK  115  A    between atoms: _287  and  _288
REMARK  116  A    between atoms: _288  and  _289
REMARK  117  A    between atoms: _289  and  _290
REMARK  118  A    between atoms: _299  and  _301
REMARK  119  A    between atoms: _301  and  _302
REMARK  120  A    between atoms: _304  and  _306
REMARK  121  A    between atoms: _306  and  _307
REMARK  122  A    between atoms: _306  and  _309
REMARK  123  A    between atoms: _309  and  _310
REMARK  124  A    between atoms: _313  and  _315
REMARK  125  A    between atoms: _315  and  _316
REMARK  126  A    between atoms: _315  and  _318
REMARK  127  A    between atoms: _318  and  _319
REMARK  128  A    between atoms: _322  and  _324
REMARK  129  A    between atoms: _324  and  _325
REMARK  130  A    between atoms: _324  and  _327
REMARK  131  A    between atoms: _327  and  _328
REMARK  132  A    between atoms: _328  and  _329
REMARK  133  A    between atoms: _334  and  _336
REMARK  134  A    between atoms: _336  and  _337
REMARK  135  A    between atoms: _336  and  _339
REMARK  136  A    between atoms: _339  and  _340
REMARK  137  A    between atoms: _343  and  _345
REMARK  138  A    between atoms: _345  and  _346
REMARK  139  A    between atoms: _345  and  _348
REMARK  140  A    between atoms: _348  and  _349
REMARK  141  A    between atoms: _349  and  _350
REMARK                            x       y       z     vdW  Elec       q    Type
REMARK                         _______ _______ _______ _____ _____    ______ ____
ROOT
ATOM      1  C   TYR A   2      40.504   6.811   0.903  0.00  0.00    +0.241 C 
ATOM      2  O   TYR A   2      40.003   6.160   1.826  0.00  0.00    -0.273 OA
ATOM      3  N   ARG A   3      41.161   6.247  -0.104  0.00  0.00    -0.297 N 
ATOM      4  H   ARG A   3      41.571   6.847  -0.848  0.00  0.00    +0.150 HD
ENDROOT
BRANCH   3   5
ATOM      5  CA  ARG A   3      41.315   4.805  -0.182  0.00  0.00    +0.149 C 
BRANCH   5   6
ATOM      6  C   ARG A   3      42.506   4.366   0.668  0.00  0.00    +0.241 C 
ATOM      7  O   ARG A   3      42.556   3.228   1.144  0.00  0.00    -0.273 OA
ATOM      8  N   ASP A   4      43.452   5.279   0.877  0.00  0.00    -0.297 N 
ATOM      9  H   ASP A   4      43.337   6.234   0.482  0.00  0.00    +0.150 HD
BRANCH   8  10
ATOM     10  CA  ASP A   4      44.648   4.963   1.651  0.00  0.00    +0.160 C 
BRANCH  10  11
ATOM     11  C   ASP A   4      44.721   5.535   3.072  0.00  0.00    +0.241 C 
ATOM     12  O   ASP A   4      45.779   5.473   3.707  0.00  0.00    -0.273 OA
ATOM     13  N   VAL A   5      43.614   6.085   3.571  0.00  0.00    -0.298 N 
ATOM     14  H   VAL A   5      42.756   6.125   2.985  0.00  0.00    +0.150 HD
BRANCH  13  15
ATOM     15  CA  VAL A   5      43.584   6.634   4.929  0.00  0.00    +0.137 C 
BRANCH  15  16
ATOM     16  CB  VAL A   5      43.198   8.121   4.939  0.00  0.00    +0.026 C 
ATOM     17  CG2 VAL A   5      43.591   8.741   6.263  0.00  0.00    +0.002 C 
ATOM     18  CG1 VAL A   5      43.864   8.836   3.806  0.00  0.00    +0.002 C 
ENDBRANCH  15  16
BRANCH  15  19
ATOM     19  C   VAL A   5      42.539   5.877   5.736  0.00  0.00    +0.227 C 
ATOM     20  O   VAL A   5      41.385   6.287   5.806  0.00  0.00    -0.286 OA
ENDBRANCH  15  19
ENDBRANCH  13  15
ENDBRANCH  10  11
BRANCH  10  21
ATOM     21  CB  ASP A   4      45.901   5.376   0.862  0.00  0.00    +0.143 C 
BRANCH  21  22
ATOM     22  CG  ASP A   4      45.964   6.876   0.587  0.00  0.00    +0.367 C 
ATOM     23  OD2 ASP A   4      46.999   7.497   0.928  0.00  0.00    -0.246 OA
ATOM     24  OD1 ASP A   4      44.990   7.430   0.022  0.00  0.00    -0.246 OA
ENDBRANCH  21  22
ENDBRANCH  10  21
ENDBRANCH   8  10
ENDBRANCH   5   6
BRANCH   5  25
ATOM     25  CB  ARG A   3      41.455   4.360  -1.638  0.00  0.00    +0.033 C 
BRANCH  25  26
ATOM     26  CG  ARG A   3      40.266   4.715  -2.513  0.00  0.00    +0.045 C 
BRANCH  26  27
ATOM     27  CD  ARG A   3      40.357   4.038  -3.870  0.00  0.00    +0.174 C 
BRANCH  27  28
ATOM     28  NE  ARG A   3      39.220   4.370  -4.724  0.00  0.00    -0.265 N 
ATOM     29  HE  ARG A   3      38.493   5.007  -4.340  0.00  0.00    +0.259 HD
ATOM     30  CZ  ARG A   3      39.055   3.911  -5.959  0.00  0.00    +0.342 C 
ATOM     31  NH2 ARG A   3      39.957   3.097  -6.489  0.00  0.00    -0.292 N 
ATOM     32 HH21 ARG A   3      40.794   2.818  -5.938  0.00  0.00    +0.255 HD
ATOM     33 HH22 ARG A   3      39.828   2.737  -7.456  0.00  0.00    +0.255 HD
ATOM     34  NH1 ARG A   3      37.989   4.267  -6.661  0.00  0.00    -0.292 N 
ATOM     35 HH11 ARG A   3      37.282   4.906  -6.245  0.00  0.00    +0.255 HD
ATOM     36 HH12 ARG A   3      37.860   3.908  -7.628  0.00  0.00    +0.255 HD
ENDBRANCH  27  28
ENDBRANCH  26  27
ENDBRANCH  25  26
ENDBRANCH   5  25
ENDBRANCH   3   5
BRANCH   1  37
ATOM     37  CA  TYR A   2      40.420   8.334   0.876  0.00  0.00    +0.153 C 
BRANCH  37  39
ATOM     38  C   ARG A   1      38.235   9.352   1.247  0.00  0.00    +0.238 C 
ATOM     39  N   TYR A   2      39.339   8.804   1.749  0.00  0.00    -0.297 N 
ATOM     40  H   TYR A   2      39.437   8.707   2.780  0.00  0.00    +0.150 HD
ATOM     41  O   ARG A   1      38.067   9.511   0.039  0.00  0.00    -0.274 OA
BRANCH  38  42
ATOM     42  CA  ARG A   1      37.159   9.789   2.246  0.00  0.00    +0.145 C 
BRANCH  42  43
ATOM     43  N   ARG A   1      36.802   8.724   3.169  0.00  0.00    -0.238 NA
ATOM     44  H   ARG A   1      37.374   8.587   4.027  0.00  0.00    +0.142 HD
ENDBRANCH  42  43
BRANCH  42  45
ATOM     45  CB  ARG A   1      37.617  11.009   3.049  0.00  0.00    +0.030 C 
BRANCH  45  46
ATOM     46  CG  ARG A   1      37.983  12.214   2.226  0.00  0.00    +0.045 C 
BRANCH  46  47
ATOM     47  CD  ARG A   1      38.301  13.385   3.133  0.00  0.00    +0.174 C 
BRANCH  47  48
ATOM     48  NE  ARG A   1      37.098  13.934   3.746  0.00  0.00    -0.265 N 
ATOM     49  HE  ARG A   1      36.930  13.742   4.754  0.00  0.00    +0.259 HD
ATOM     50  CZ  ARG A   1      36.204  14.666   3.091  0.00  0.00    +0.342 C 
ATOM     51  NH2 ARG A   1      35.132  15.135   3.717  0.00  0.00    -0.292 N 
ATOM     52 HH21 ARG A   1      34.988  14.930   4.726  0.00  0.00    +0.255 HD
ATOM     53 HH22 ARG A   1      34.436  15.708   3.198  0.00  0.00    +0.255 HD
ATOM     54  NH1 ARG A   1      36.388  14.934   1.804  0.00  0.00    -0.292 N 
ATOM     55 HH11 ARG A   1      37.230  14.571   1.312  0.00  0.00    +0.255 HD
ATOM     56 HH12 ARG A   1      35.691  15.507   1.287  0.00  0.00    +0.255 HD
ENDBRANCH  47  48
ENDBRANCH  46  47
ENDBRANCH  45  46
ENDBRANCH  42  45
ENDBRANCH  38  42
ENDBRANCH  37  39
BRANCH  37  57
ATOM     57  CB  TYR A   2      41.781   8.877   1.313  0.00  0.00    +0.055 C 
BRANCH  57  58
ATOM     58  CG  TYR A   2      41.823  10.352   1.573  0.00  0.00    -0.020 A 
ATOM     59  CD2 TYR A   2      41.429  10.873   2.804  0.00  0.00    -0.001 A 
ATOM     60  CE2 TYR A   2      41.481  12.245   3.053  0.00  0.00    +0.036 A 
ATOM     61  CZ  TYR A   2      41.931  13.106   2.063  0.00  0.00    +0.134 A 
ATOM     62  CE1 TYR A   2      42.325  12.608   0.831  0.00  0.00    +0.036 A 
ATOM     63  CD1 TYR A   2      42.269  11.233   0.592  0.00  0.00    -0.001 A 
BRANCH  61  64
ATOM     64  OH  TYR A   2      41.995  14.459   2.298  0.00  0.00    -0.506 OA
ATOM     65  HH  TYR A   2      42.931  14.766   2.198  0.00  0.00    +0.292 HD
ENDBRANCH  61  64
ENDBRANCH  57  58
ENDBRANCH  37  57
ENDBRANCH   1  37
TORSDOF 24
REMARK  Name = ../refined-set-2016/3eb1/3eb1_pocket.pdb
REMARK  141 active torsions:
REMARK  status: ('A' for Active; 'I' for Inactive)
REMARK    1  A    between atoms: _1  and  _3
REMARK    2  A    between atoms: _3  and  _4
REMARK    3  A    between atoms: _3  and  _6
REMARK    4  A    between atoms: _6  and  _7
REMARK    5  A    between atoms: _12  and  _13
REMARK    6  A    between atoms: _15  and  _17
REMARK    7  A    between atoms: _17  and  _18
REMARK    8  A    between atoms: _17  and  _20
REMARK    9  A    between atoms: _20  and  _21
REMARK   10  A    between atoms: _21  and  _22
REMARK   11  A    between atoms: _22  and  _23
REMARK   12  A    between atoms: _32  and  _34
REMARK   13  A    between atoms: _34  and  _35
REMARK   14  A    between atoms: _34  and  _37
REMARK   15  A    between atoms: _37  and  _38
REMARK   16  A    between atoms: _38  and  _39
REMARK   17  A    between atoms: _39  and  _40
REMARK   18  A    between atoms: _49  and  _51
REMARK   19  A    between atoms: _51  and  _52
REMARK   20  A    between atoms: _51  and  _54
REMARK   21  A    between atoms: _54  and  _55
REMARK   22  A    between atoms: _60  and  _61
REMARK   23  A    between atoms: _63  and  _65
REMARK   24  A    between atoms: _65  and  _66
REMARK   25  A    between atoms: _65  and  _68
REMARK   26  A    between atoms: _68  and  _69
REMARK   27  A    between atoms: _69  and  _70
REMARK   28  A    between atoms: _70  and  _71
REMARK   29  A    between atoms: _80  and  _82
REMARK   30  A    between atoms: _82  and  _83
REMARK   31  A    between atoms: _82  and  _85
REMARK   32  A    between atoms: _85  and  _86
REMARK   33  A    between atoms: _89  and  _91
REMARK   34  A    between atoms: _91  and  _92
REMARK   35  A    between atoms: _91  and  _94
REMARK   36  A    between atoms: _97  and  _99
REMARK   37  A    between atoms: _99  and  _100
REMARK   38  A    between atoms: _102  and  _104
REMARK   39  A    between atoms: _104  and  _105
REMARK   40  A    between atoms: _104  and  _107
REMARK   41  A    between atoms: _107  and  _108
REMARK   42  A    between atoms: _111  and  _113
REMARK   43  A    between atoms: _113  and  _114
REMARK   44  A    between atoms: _113  and  _116
REMARK   45  A    between atoms: _116  and  _117
REMARK   46  A    between atoms: _122  and  _124
REMARK   47  A    between atoms: _124  and  _125
REMARK   48  A    between atoms: _124  and  _127
REMARK   49  A    between atoms: _127  and  _128
REMARK   50  A    between atoms: _128  and  _129
REMARK   51  A    between atoms: _132  and  _134
REMARK   52  A    between atoms: _134  and  _135
REMARK   53  A    between atoms: _134  and  _137
REMARK   54  A    between atoms: _137  and  _138
REMARK   55  A    between atoms: _138  and  _139
REMARK   56  A    between atoms: _139  and  _140
REMARK   57  A    between atoms: _140  and  _141
REMARK   58  A    between atoms: _145  and  _147
REMARK   59  A    between atoms: _147  and  _148
REMARK   60  A    between atoms: _147  and  _150
REMARK   61  A    between atoms: _150  and  _151
REMARK   62  A    between atoms: _151  and  _152
REMARK   63  A    between atoms: _152  and  _153
REMARK   64  A    between atoms: _153  and  _154
REMARK   65  A    between atoms: _158  and  _160
REMARK   66  A    between atoms: _160  and  _161
REMARK   67  A    between atoms: _160  and  _163
REMARK   68  A    between atoms: _163  and  _164
REMARK   69  A    between atoms: _175  and  _176
REMARK   70  A    between atoms: _181  and  _183
REMARK   71  A    between atoms: _183  and  _184
REMARK   72  A    between atoms: _183  and  _186
REMARK   73  A    between atoms: _186  and  _187
REMARK   74  A    between atoms: _190  and  _192
REMARK   75  A    between atoms: _192  and  _193
REMARK   76  A    between atoms: _195  and  _197
REMARK   77  A    between atoms: _197  and  _198
REMARK   78  A    between atoms: _197  and  _200
REMARK   79  A    between atoms: _203  and  _205
REMARK   80  A    between atoms: _205  and  _206
REMARK   81  A    between atoms: _205  and  _208
REMARK   82  A    between atoms: _210  and  _212
REMARK   83  A    between atoms: _212  and  _213
REMARK   84  A    between atoms: _212  and  _215
REMARK   85  A    between atoms: _215  and  _216
REMARK   86  A    between atoms: _218  and  _220
REMARK   87  A    between atoms: _220  and  _221
REMARK   88  A    between atoms: _224  and  _226
REMARK   89  A    between atoms: _226  and  _227
REMARK   90  A    between atoms: _229  and  _231
REMARK   91  A    between atoms: _231  and  _232
REMARK   92  A    between atoms: _231  and  _234
REMARK   93  A    between atoms: _234  and  _235
REMARK   94  A    between atoms: _238  and  _240
REMARK   95  A    between atoms: _240  and  _241
REMARK   96  A    between atoms: _243  and  _245
REMARK   97  A    between atoms: _245  and  _246
REMARK   98  A    between atoms: _245  and  _248
REMARK   99  A    between atoms: _248  and  _249
REMARK  100  A    between atoms: _249  and  _250
REMARK  101  A    between atoms: _250  and  _251
REMARK  102  A    between atoms: _260  and  _262
REMARK  103  A    between atoms: _262  and  _263
REMARK  104  A    between atoms: _262  and  _265
REMARK  105  A    between atoms: _265  and  _266
REMARK  106  A    between atoms: _268  and  _270
REMARK  107  A    between atoms: _270  and  _271
REMARK  108  A    between atoms: _273  and  _275
REMARK  109  A    between atoms: _275  and  _276
REMARK  110  A    between atoms: _275  and  _278
REMARK  111  A    between atoms: _278  and  _279
REMARK  112  A    between atoms: _282  and  _284
REMARK  113  A    between atoms: _284  and  _285
REMARK  114  A    between atoms: _284  and  _287
REMARK  115  A    between atoms: _287  and  _288
REMARK  116  A    between atoms: _288  and  _289
REMARK  117  A    between atoms: _289  and  _290
REMARK  118  A    between atoms: _299  and  _301
REMARK  119  A    between atoms: _301  and  _302
REMARK  120  A    between atoms: _304  and  _306
REMARK  121  A    between atoms: _306  and  _307
REMARK  122  A    between atoms: _306  and  _309
REMARK  123  A    between atoms: _309  and  _310
REMARK  124  A    between atoms: _313  and  _315
REMARK  125  A    between atoms: _315  and  _316
REMARK  126  A    between atoms: _315  and  _318
REMARK  127  A    between atoms: _318  and  _319
REMARK  128  A    between atoms: _322  and  _324
REMARK  129  A    between atoms: _324  and  _325
REMARK  130  A    between atoms: _324  and  _327
REMARK  131  A    between atoms: _327  and  _328
REMARK  132  A    between atoms: _328  and  _329
REMARK  133  A    between atoms: _334  and  _336
REMARK  134  A    between atoms: _336  and  _337
REMARK  135  A    between atoms: _336  and  _339
REMARK  136  A    between atoms: _339  and  _340
REMARK  137  A    between atoms: _343  and  _345
REMARK  138  A    between atoms: _345  and  _346
REMARK  139  A    between atoms: _345  and  _348
REMARK  140  A    between atoms: _348  and  _349
REMARK  141  A    between atoms: _349  and  _350
REMARK                            x       y       z     vdW  Elec       q    Type
REMARK                         _______ _______ _______ _____ _____    ______ ____
ROOT
ATOM      1  CA  GLY A   1      37.245  15.859   7.700  0.00  0.00    +0.156 C 
ENDROOT
BRANCH   1   2
ATOM      2  N   GLY A   1      38.194  14.761   7.758  0.00  0.00    -0.238 NA
ATOM      3  H   GLY A   1      39.049  14.770   7.167  0.00  0.00    +0.142 HD
ENDBRANCH   1   2
BRANCH   1   4
ATOM      4  C   GLY A   1      35.892  15.269   7.317  0.00  0.00    +0.226 C 
ATOM      5  O   GLY A   1      35.822  14.479   6.383  0.00  0.00    -0.287 OA
ENDBRANCH   1   4
TORSDOF 2
REMARK  Name = ../refined-set-2016/3eb1/3eb1_pocket.pdb
REMARK  141 active torsions:
REMARK  status: ('A' for Active; 'I' for Inactive)
REMARK    1  A    between atoms: _1  and  _3
REMARK    2  A    between atoms: _3  and  _4
REMARK    3  A    between atoms: _3  and  _6
REMARK    4  A    between atoms: _6  and  _7
REMARK    5  A    between atoms: _12  and  _13
REMARK    6  A    between atoms: _15  and  _17
REMARK    7  A    between atoms: _17  and  _18
REMARK    8  A    between atoms: _17  and  _20
REMARK    9  A    between atoms: _20  and  _21
REMARK   10  A    between atoms: _21  and  _22
REMARK   11  A    between atoms: _22  and  _23
REMARK   12  A    between atoms: _32  and  _34
REMARK   13  A    between atoms: _34  and  _35
REMARK   14  A    between atoms: _34  and  _37
REMARK   15  A    between atoms: _37  and  _38
REMARK   16  A    between atoms: _38  and  _39
REMARK   17  A    between atoms: _39  and  _40
REMARK   18  A    between atoms: _49  and  _51
REMARK   19  A    between atoms: _51  and  _52
REMARK   20  A    between atoms: _51  and  _54
REMARK   21  A    between atoms: _54  and  _55
REMARK   22  A    between atoms: _60  and  _61
REMARK   23  A    between atoms: _63  and  _65
REMARK   24  A    between atoms: _65  and  _66
REMARK   25  A    between atoms: _65  and  _68
REMARK   26  A    between atoms: _68  and  _69
REMARK   27  A    between atoms: _69  and  _70
REMARK   28  A    between atoms: _70  and  _71
REMARK   29  A    between atoms: _80  and  _82
REMARK   30  A    between atoms: _82  and  _83
REMARK   31  A    between atoms: _82  and  _85
REMARK   32  A    between atoms: _85  and  _86
REMARK   33  A    between atoms: _89  and  _91
REMARK   34  A    between atoms: _91  and  _92
REMARK   35  A    between atoms: _91  and  _94
REMARK   36  A    between atoms: _97  and  _99
REMARK   37  A    between atoms: _99  and  _100
REMARK   38  A    between atoms: _102  and  _104
REMARK   39  A    between atoms: _104  and  _105
REMARK   40  A    between atoms: _104  and  _107
REMARK   41  A    between atoms: _107  and  _108
REMARK   42  A    between atoms: _111  and  _113
REMARK   43  A    between atoms: _113  and  _114
REMARK   44  A    between atoms: _113  and  _116
REMARK   45  A    between atoms: _116  and  _117
REMARK   46  A    between atoms: _122  and  _124
REMARK   47  A    between atoms: _124  and  _125
REMARK   48  A    between atoms: _124  and  _127
REMARK   49  A    between atoms: _127  and  _128
REMARK   50  A    between atoms: _128  and  _129
REMARK   51  A    between atoms: _132  and  _134
REMARK   52  A    between atoms: _134  and  _135
REMARK   53  A    between atoms: _134  and  _137
REMARK   54  A    between atoms: _137  and  _138
REMARK   55  A    between atoms: _138  and  _139
REMARK   56  A    between atoms: _139  and  _140
REMARK   57  A    between atoms: _140  and  _141
REMARK   58  A    between atoms: _145  and  _147
REMARK   59  A    between atoms: _147  and  _148
REMARK   60  A    between atoms: _147  and  _150
REMARK   61  A    between atoms: _150  and  _151
REMARK   62  A    between atoms: _151  and  _152
REMARK   63  A    between atoms: _152  and  _153
REMARK   64  A    between atoms: _153  and  _154
REMARK   65  A    between atoms: _158  and  _160
REMARK   66  A    between atoms: _160  and  _161
REMARK   67  A    between atoms: _160  and  _163
REMARK   68  A    between atoms: _163  and  _164
REMARK   69  A    between atoms: _175  and  _176
REMARK   70  A    between atoms: _181  and  _183
REMARK   71  A    between atoms: _183  and  _184
REMARK   72  A    between atoms: _183  and  _186
REMARK   73  A    between atoms: _186  and  _187
REMARK   74  A    between atoms: _190  and  _192
REMARK   75  A    between atoms: _192  and  _193
REMARK   76  A    between atoms: _195  and  _197
REMARK   77  A    between atoms: _197  and  _198
REMARK   78  A    between atoms: _197  and  _200
REMARK   79  A    between atoms: _203  and  _205
REMARK   80  A    between atoms: _205  and  _206
REMARK   81  A    between atoms: _205  and  _208
REMARK   82  A    between atoms: _210  and  _212
REMARK   83  A    between atoms: _212  and  _213
REMARK   84  A    between atoms: _212  and  _215
REMARK   85  A    between atoms: _215  and  _216
REMARK   86  A    between atoms: _218  and  _220
REMARK   87  A    between atoms: _220  and  _221
REMARK   88  A    between atoms: _224  and  _226
REMARK   89  A    between atoms: _226  and  _227
REMARK   90  A    between atoms: _229  and  _231
REMARK   91  A    between atoms: _231  and  _232
REMARK   92  A    between atoms: _231  and  _234
REMARK   93  A    between atoms: _234  and  _235
REMARK   94  A    between atoms: _238  and  _240
REMARK   95  A    between atoms: _240  and  _241
REMARK   96  A    between atoms: _243  and  _245
REMARK   97  A    between atoms: _245  and  _246
REMARK   98  A    between atoms: _245  and  _248
REMARK   99  A    between atoms: _248  and  _249
REMARK  100  A    between atoms: _249  and  _250
REMARK  101  A    between atoms: _250  and  _251
REMARK  102  A    between atoms: _260  and  _262
REMARK  103  A    between atoms: _262  and  _263
REMARK  104  A    between atoms: _262  and  _265
REMARK  105  A    between atoms: _265  and  _266
REMARK  106  A    between atoms: _268  and  _270
REMARK  107  A    between atoms: _270  and  _271
REMARK  108  A    between atoms: _273  and  _275
REMARK  109  A    between atoms: _275  and  _276
REMARK  110  A    between atoms: _275  and  _278
REMARK  111  A    between atoms: _278  and  _279
REMARK  112  A    between atoms: _282  and  _284
REMARK  113  A    between atoms: _284  and  _285
REMARK  114  A    between atoms: _284  and  _287
REMARK  115  A    between atoms: _287  and  _288
REMARK  116  A    between atoms: _288  and  _289
REMARK  117  A    between atoms: _289  and  _290
REMARK  118  A    between atoms: _299  and  _301
REMARK  119  A    between atoms: _301  and  _302
REMARK  120  A    between atoms: _304  and  _306
REMARK  121  A    between atoms: _306  and  _307
REMARK  122  A    between atoms: _306  and  _309
REMARK  123  A    between atoms: _309  and  _310
REMARK  124  A    between atoms: _313  and  _315
REMARK  125  A    between atoms: _315  and  _316
REMARK  126  A    between atoms: _315  and  _318
REMARK  127  A    between atoms: _318  and  _319
REMARK  128  A    between atoms: _322  and  _324
REMARK  129  A    between atoms: _324  and  _325
REMARK  130  A    between atoms: _324  and  _327
REMARK  131  A    between atoms: _327  and  _328
REMARK  132  A    between atoms: _328  and  _329
REMARK  133  A    between atoms: _334  and  _336
REMARK  134  A    between atoms: _336  and  _337
REMARK  135  A    between atoms: _336  and  _339
REMARK  136  A    between atoms: _339  and  _340
REMARK  137  A    between atoms: _343  and  _345
REMARK  138  A    between atoms: _345  and  _346
REMARK  139  A    between atoms: _345  and  _348
REMARK  140  A    between atoms: _348  and  _349
REMARK  141  A    between atoms: _349  and  _350
REMARK                            x       y       z     vdW  Elec       q    Type
REMARK                         _______ _______ _______ _____ _____    ______ ____
ROOT
ATOM      1  C   LEU A   1      43.561  22.698   9.228  0.00  0.00    +0.238 C 
ATOM      2  N   ASN A   2      42.364  22.710   8.665  0.00  0.00    -0.298 N 
ATOM      3  H   ASN A   2      41.518  22.543   9.246  0.00  0.00    +0.150 HD
ATOM      4  O   LEU A   1      44.589  22.912   8.594  0.00  0.00    -0.274 OA
ENDROOT
BRANCH   1   5
ATOM      5  CA  LEU A   1      43.610  22.420  10.722  0.00  0.00    +0.145 C 
BRANCH   5   6
ATOM      6  N   LEU A   1      42.369  21.864  11.245  0.00  0.00    -0.238 NA
ATOM      7  H   LEU A   1      42.119  20.877  11.033  0.00  0.00    +0.142 HD
ENDBRANCH   5   6
BRANCH   5   8
ATOM      8  CB  LEU A   1      44.767  21.464  11.034  0.00  0.00    +0.026 C 
BRANCH   8   9
ATOM      9  CG  LEU A   1      44.934  21.047  12.499  0.00  0.00    +0.002 C 
ATOM     10  CD2 LEU A   1      45.360  22.245  13.318  0.00  0.00    +0.000 C 
ATOM     11  CD1 LEU A   1      45.956  19.930  12.613  0.00  0.00    +0.000 C 
ENDBRANCH   8   9
ENDBRANCH   5   8
ENDBRANCH   1   5
BRANCH   2  12
ATOM     12  CA  ASN A   2      42.223  22.956   7.236  0.00  0.00    +0.146 C 
BRANCH  12  13
ATOM     13  C   ASN A   2      41.093  23.943   6.989  0.00  0.00    +0.227 C 
ATOM     14  O   ASN A   2      40.327  24.258   7.895  0.00  0.00    -0.286 OA
ENDBRANCH  12  13
BRANCH  12  15
ATOM     15  CB  ASN A   2      41.899  21.645   6.529  0.00  0.00    +0.112 C 
BRANCH  15  16
ATOM     16  CG  ASN A   2      40.460  21.224   6.737  0.00  0.00    +0.222 C 
ATOM     17  ND2 ASN A   2      40.186  20.580   7.864  0.00  0.00    -0.329 N 
ATOM     18 HD21 ASN A   2      40.947  20.368   8.540  0.00  0.00    +0.145 HD
ATOM     19 HD22 ASN A   2      39.210  20.287   8.072  0.00  0.00    +0.145 HD
ATOM     20  OD1 ASN A   2      39.598  21.499   5.906  0.00  0.00    -0.275 OA
ENDBRANCH  15  16
ENDBRANCH  12  15
ENDBRANCH   2  12
TORSDOF 8
REMARK  Name = ../refined-set-2016/3eb1/3eb1_pocket.pdb
REMARK  141 active torsions:
REMARK  status: ('A' for Active; 'I' for Inactive)
REMARK    1  A    between atoms: _1  and  _3
REMARK    2  A    between atoms: _3  and  _4
REMARK    3  A    between atoms: _3  and  _6
REMARK    4  A    between atoms: _6  and  _7
REMARK    5  A    between atoms: _12  and  _13
REMARK    6  A    between atoms: _15  and  _17
REMARK    7  A    between atoms: _17  and  _18
REMARK    8  A    between atoms: _17  and  _20
REMARK    9  A    between atoms: _20  and  _21
REMARK   10  A    between atoms: _21  and  _22
REMARK   11  A    between atoms: _22  and  _23
REMARK   12  A    between atoms: _32  and  _34
REMARK   13  A    between atoms: _34  and  _35
REMARK   14  A    between atoms: _34  and  _37
REMARK   15  A    between atoms: _37  and  _38
REMARK   16  A    between atoms: _38  and  _39
REMARK   17  A    between atoms: _39  and  _40
REMARK   18  A    between atoms: _49  and  _51
REMARK   19  A    between atoms: _51  and  _52
REMARK   20  A    between atoms: _51  and  _54
REMARK   21  A    between atoms: _54  and  _55
REMARK   22  A    between atoms: _60  and  _61
REMARK   23  A    between atoms: _63  and  _65
REMARK   24  A    between atoms: _65  and  _66
REMARK   25  A    between atoms: _65  and  _68
REMARK   26  A    between atoms: _68  and  _69
REMARK   27  A    between atoms: _69  and  _70
REMARK   28  A    between atoms: _70  and  _71
REMARK   29  A    between atoms: _80  and  _82
REMARK   30  A    between atoms: _82  and  _83
REMARK   31  A    between atoms: _82  and  _85
REMARK   32  A    between atoms: _85  and  _86
REMARK   33  A    between atoms: _89  and  _91
REMARK   34  A    between atoms: _91  and  _92
REMARK   35  A    between atoms: _91  and  _94
REMARK   36  A    between atoms: _97  and  _99
REMARK   37  A    between atoms: _99  and  _100
REMARK   38  A    between atoms: _102  and  _104
REMARK   39  A    between atoms: _104  and  _105
REMARK   40  A    between atoms: _104  and  _107
REMARK   41  A    between atoms: _107  and  _108
REMARK   42  A    between atoms: _111  and  _113
REMARK   43  A    between atoms: _113  and  _114
REMARK   44  A    between atoms: _113  and  _116
REMARK   45  A    between atoms: _116  and  _117
REMARK   46  A    between atoms: _122  and  _124
REMARK   47  A    between atoms: _124  and  _125
REMARK   48  A    between atoms: _124  and  _127
REMARK   49  A    between atoms: _127  and  _128
REMARK   50  A    between atoms: _128  and  _129
REMARK   51  A    between atoms: _132  and  _134
REMARK   52  A    between atoms: _134  and  _135
REMARK   53  A    between atoms: _134  and  _137
REMARK   54  A    between atoms: _137  and  _138
REMARK   55  A    between atoms: _138  and  _139
REMARK   56  A    between atoms: _139  and  _140
REMARK   57  A    between atoms: _140  and  _141
REMARK   58  A    between atoms: _145  and  _147
REMARK   59  A    between atoms: _147  and  _148
REMARK   60  A    between atoms: _147  and  _150
REMARK   61  A    between atoms: _150  and  _151
REMARK   62  A    between atoms: _151  and  _152
REMARK   63  A    between atoms: _152  and  _153
REMARK   64  A    between atoms: _153  and  _154
REMARK   65  A    between atoms: _158  and  _160
REMARK   66  A    between atoms: _160  and  _161
REMARK   67  A    between atoms: _160  and  _163
REMARK   68  A    between atoms: _163  and  _164
REMARK   69  A    between atoms: _175  and  _176
REMARK   70  A    between atoms: _181  and  _183
REMARK   71  A    between atoms: _183  and  _184
REMARK   72  A    between atoms: _183  and  _186
REMARK   73  A    between atoms: _186  and  _187
REMARK   74  A    between atoms: _190  and  _192
REMARK   75  A    between atoms: _192  and  _193
REMARK   76  A    between atoms: _195  and  _197
REMARK   77  A    between atoms: _197  and  _198
REMARK   78  A    between atoms: _197  and  _200
REMARK   79  A    between atoms: _203  and  _205
REMARK   80  A    between atoms: _205  and  _206
REMARK   81  A    between atoms: _205  and  _208
REMARK   82  A    between atoms: _210  and  _212
REMARK   83  A    between atoms: _212  and  _213
REMARK   84  A    between atoms: _212  and  _215
REMARK   85  A    between atoms: _215  and  _216
REMARK   86  A    between atoms: _218  and  _220
REMARK   87  A    between atoms: _220  and  _221
REMARK   88  A    between atoms: _224  and  _226
REMARK   89  A    between atoms: _226  and  _227
REMARK   90  A    between atoms: _229  and  _231
REMARK   91  A    between atoms: _231  and  _232
REMARK   92  A    between atoms: _231  and  _234
REMARK   93  A    between atoms: _234  and  _235
REMARK   94  A    between atoms: _238  and  _240
REMARK   95  A    between atoms: _240  and  _241
REMARK   96  A    between atoms: _243  and  _245
REMARK   97  A    between atoms: _245  and  _246
REMARK   98  A    between atoms: _245  and  _248
REMARK   99  A    between atoms: _248  and  _249
REMARK  100  A    between atoms: _249  and  _250
REMARK  101  A    between atoms: _250  and  _251
REMARK  102  A    between atoms: _260  and  _262
REMARK  103  A    between atoms: _262  and  _263
REMARK  104  A    between atoms: _262  and  _265
REMARK  105  A    between atoms: _265  and  _266
REMARK  106  A    between atoms: _268  and  _270
REMARK  107  A    between atoms: _270  and  _271
REMARK  108  A    between atoms: _273  and  _275
REMARK  109  A    between atoms: _275  and  _276
REMARK  110  A    between atoms: _275  and  _278
REMARK  111  A    between atoms: _278  and  _279
REMARK  112  A    between atoms: _282  and  _284
REMARK  113  A    between atoms: _284  and  _285
REMARK  114  A    between atoms: _284  and  _287
REMARK  115  A    between atoms: _287  and  _288
REMARK  116  A    between atoms: _288  and  _289
REMARK  117  A    between atoms: _289  and  _290
REMARK  118  A    between atoms: _299  and  _301
REMARK  119  A    between atoms: _301  and  _302
REMARK  120  A    between atoms: _304  and  _306
REMARK  121  A    between atoms: _306  and  _307
REMARK  122  A    between atoms: _306  and  _309
REMARK  123  A    between atoms: _309  and  _310
REMARK  124  A    between atoms: _313  and  _315
REMARK  125  A    between atoms: _315  and  _316
REMARK  126  A    between atoms: _315  and  _318
REMARK  127  A    between atoms: _318  and  _319
REMARK  128  A    between atoms: _322  and  _324
REMARK  129  A    between atoms: _324  and  _325
REMARK  130  A    between atoms: _324  and  _327
REMARK  131  A    between atoms: _327  and  _328
REMARK  132  A    between atoms: _328  and  _329
REMARK  133  A    between atoms: _334  and  _336
REMARK  134  A    between atoms: _336  and  _337
REMARK  135  A    between atoms: _336  and  _339
REMARK  136  A    between atoms: _339  and  _340
REMARK  137  A    between atoms: _343  and  _345
REMARK  138  A    between atoms: _345  and  _346
REMARK  139  A    between atoms: _345  and  _348
REMARK  140  A    between atoms: _348  and  _349
REMARK  141  A    between atoms: _349  and  _350
REMARK                            x       y       z     vdW  Elec       q    Type
REMARK                         _______ _______ _______ _____ _____    ______ ____
ROOT
ATOM      1  C   GLU A   1      42.138  24.241  -1.778  0.00  0.00    +0.238 C 
ATOM      2  O   GLU A   1      41.698  23.179  -2.229  0.00  0.00    -0.274 OA
ATOM      3  N   LYS A   2      42.894  25.067  -2.495  0.00  0.00    -0.298 N 
ATOM      4  H   LYS A   2      43.224  25.956  -2.067  0.00  0.00    +0.150 HD
ENDROOT
BRANCH   1   5
ATOM      5  CA  GLU A   1      41.807  24.674  -0.351  0.00  0.00    +0.145 C 
BRANCH   5   6
ATOM      6  N   GLU A   1      40.377  24.426  -0.154  0.00  0.00    -0.238 NA
ATOM      7  H   GLU A   1      39.981  23.534  -0.513  0.00  0.00    +0.142 HD
ENDBRANCH   5   6
BRANCH   5   8
ATOM      8  CB  GLU A   1      42.647  23.867   0.656  0.00  0.00    +0.038 C 
BRANCH   8   9
ATOM      9  CG  GLU A   1      42.569  24.393   2.094  0.00  0.00    +0.116 C 
BRANCH   9  10
ATOM     10  CD  GLU A   1      43.399  23.587   3.097  0.00  0.00    +0.365 C 
ATOM     11  OE2 GLU A   1      43.541  24.042   4.254  0.00  0.00    -0.246 OA
ATOM     12  OE1 GLU A   1      43.901  22.500   2.739  0.00  0.00    -0.246 OA
ENDBRANCH   9  10
ENDBRANCH   8   9
ENDBRANCH   5   8
ENDBRANCH   1   5
BRANCH   3  13
ATOM     13  CA  LYS A   2      43.273  24.752  -3.877  0.00  0.00    +0.137 C 
BRANCH  13  14
ATOM     14  C   LYS A   2      42.057  24.592  -4.795  0.00  0.00    +0.227 C 
ATOM     15  O   LYS A   2      42.077  23.782  -5.730  0.00  0.00    -0.286 OA
ENDBRANCH  13  14
BRANCH  13  16
ATOM     16  CB  LYS A   2      44.087  23.461  -3.921  0.00  0.00    +0.028 C 
BRANCH  16  17
ATOM     17  CG  LYS A   2      45.358  23.492  -3.115  0.00  0.00    -0.000 C 
BRANCH  17  18
ATOM     18  CD  LYS A   2      46.059  22.163  -3.242  0.00  0.00    -0.024 C 
BRANCH  18  19
ATOM     19  CE  LYS A   2      47.353  22.117  -2.452  0.00  0.00    -0.086 C 
BRANCH  19  20
ATOM     20  NZ  LYS A   2      48.074  20.827  -2.690  0.00  0.00    +0.380 N 
ATOM     21  HZ1 LYS A   2      48.956  20.818  -2.139  0.00  0.00    -0.089 HD
ATOM     22  HZ2 LYS A   2      47.470  20.034  -2.393  0.00  0.00    -0.089 HD
ATOM     23  HZ3 LYS A   2      48.295  20.736  -3.702  0.00  0.00    -0.089 HD
ENDBRANCH  19  20
ENDBRANCH  18  19
ENDBRANCH  17  18
ENDBRANCH  16  17
ENDBRANCH  13  16
ENDBRANCH   3  13
TORSDOF 12
REMARK  Name = ../refined-set-2016/3eb1/3eb1_pocket.pdb
REMARK  141 active torsions:
REMARK  status: ('A' for Active; 'I' for Inactive)
REMARK    1  A    between atoms: _1  and  _3
REMARK    2  A    between atoms: _3  and  _4
REMARK    3  A    between atoms: _3  and  _6
REMARK    4  A    between atoms: _6  and  _7
REMARK    5  A    between atoms: _12  and  _13
REMARK    6  A    between atoms: _15  and  _17
REMARK    7  A    between atoms: _17  and  _18
REMARK    8  A    between atoms: _17  and  _20
REMARK    9  A    between atoms: _20  and  _21
REMARK   10  A    between atoms: _21  and  _22
REMARK   11  A    between atoms: _22  and  _23
REMARK   12  A    between atoms: _32  and  _34
REMARK   13  A    between atoms: _34  and  _35
REMARK   14  A    between atoms: _34  and  _37
REMARK   15  A    between atoms: _37  and  _38
REMARK   16  A    between atoms: _38  and  _39
REMARK   17  A    between atoms: _39  and  _40
REMARK   18  A    between atoms: _49  and  _51
REMARK   19  A    between atoms: _51  and  _52
REMARK   20  A    between atoms: _51  and  _54
REMARK   21  A    between atoms: _54  and  _55
REMARK   22  A    between atoms: _60  and  _61
REMARK   23  A    between atoms: _63  and  _65
REMARK   24  A    between atoms: _65  and  _66
REMARK   25  A    between atoms: _65  and  _68
REMARK   26  A    between atoms: _68  and  _69
REMARK   27  A    between atoms: _69  and  _70
REMARK   28  A    between atoms: _70  and  _71
REMARK   29  A    between atoms: _80  and  _82
REMARK   30  A    between atoms: _82  and  _83
REMARK   31  A    between atoms: _82  and  _85
REMARK   32  A    between atoms: _85  and  _86
REMARK   33  A    between atoms: _89  and  _91
REMARK   34  A    between atoms: _91  and  _92
REMARK   35  A    between atoms: _91  and  _94
REMARK   36  A    between atoms: _97  and  _99
REMARK   37  A    between atoms: _99  and  _100
REMARK   38  A    between atoms: _102  and  _104
REMARK   39  A    between atoms: _104  and  _105
REMARK   40  A    between atoms: _104  and  _107
REMARK   41  A    between atoms: _107  and  _108
REMARK   42  A    between atoms: _111  and  _113
REMARK   43  A    between atoms: _113  and  _114
REMARK   44  A    between atoms: _113  and  _116
REMARK   45  A    between atoms: _116  and  _117
REMARK   46  A    between atoms: _122  and  _124
REMARK   47  A    between atoms: _124  and  _125
REMARK   48  A    between atoms: _124  and  _127
REMARK   49  A    between atoms: _127  and  _128
REMARK   50  A    between atoms: _128  and  _129
REMARK   51  A    between atoms: _132  and  _134
REMARK   52  A    between atoms: _134  and  _135
REMARK   53  A    between atoms: _134  and  _137
REMARK   54  A    between atoms: _137  and  _138
REMARK   55  A    between atoms: _138  and  _139
REMARK   56  A    between atoms: _139  and  _140
REMARK   57  A    between atoms: _140  and  _141
REMARK   58  A    between atoms: _145  and  _147
REMARK   59  A    between atoms: _147  and  _148
REMARK   60  A    between atoms: _147  and  _150
REMARK   61  A    between atoms: _150  and  _151
REMARK   62  A    between atoms: _151  and  _152
REMARK   63  A    between atoms: _152  and  _153
REMARK   64  A    between atoms: _153  and  _154
REMARK   65  A    between atoms: _158  and  _160
REMARK   66  A    between atoms: _160  and  _161
REMARK   67  A    between atoms: _160  and  _163
REMARK   68  A    between atoms: _163  and  _164
REMARK   69  A    between atoms: _175  and  _176
REMARK   70  A    between atoms: _181  and  _183
REMARK   71  A    between atoms: _183  and  _184
REMARK   72  A    between atoms: _183  and  _186
REMARK   73  A    between atoms: _186  and  _187
REMARK   74  A    between atoms: _190  and  _192
REMARK   75  A    between atoms: _192  and  _193
REMARK   76  A    between atoms: _195  and  _197
REMARK   77  A    between atoms: _197  and  _198
REMARK   78  A    between atoms: _197  and  _200
REMARK   79  A    between atoms: _203  and  _205
REMARK   80  A    between atoms: _205  and  _206
REMARK   81  A    between atoms: _205  and  _208
REMARK   82  A    between atoms: _210  and  _212
REMARK   83  A    between atoms: _212  and  _213
REMARK   84  A    between atoms: _212  and  _215
REMARK   85  A    between atoms: _215  and  _216
REMARK   86  A    between atoms: _218  and  _220
REMARK   87  A    between atoms: _220  and  _221
REMARK   88  A    between atoms: _224  and  _226
REMARK   89  A    between atoms: _226  and  _227
REMARK   90  A    between atoms: _229  and  _231
REMARK   91  A    between atoms: _231  and  _232
REMARK   92  A    between atoms: _231  and  _234
REMARK   93  A    between atoms: _234  and  _235
REMARK   94  A    between atoms: _238  and  _240
REMARK   95  A    between atoms: _240  and  _241
REMARK   96  A    between atoms: _243  and  _245
REMARK   97  A    between atoms: _245  and  _246
REMARK   98  A    between atoms: _245  and  _248
REMARK   99  A    between atoms: _248  and  _249
REMARK  100  A    between atoms: _249  and  _250
REMARK  101  A    between atoms: _250  and  _251
REMARK  102  A    between atoms: _260  and  _262
REMARK  103  A    between atoms: _262  and  _263
REMARK  104  A    between atoms: _262  and  _265
REMARK  105  A    between atoms: _265  and  _266
REMARK  106  A    between atoms: _268  and  _270
REMARK  107  A    between atoms: _270  and  _271
REMARK  108  A    between atoms: _273  and  _275
REMARK  109  A    between atoms: _275  and  _276
REMARK  110  A    between atoms: _275  and  _278
REMARK  111  A    between atoms: _278  and  _279
REMARK  112  A    between atoms: _282  and  _284
REMARK  113  A    between atoms: _284  and  _285
REMARK  114  A    between atoms: _284  and  _287
REMARK  115  A    between atoms: _287  and  _288
REMARK  116  A    between atoms: _288  and  _289
REMARK  117  A    between atoms: _289  and  _290
REMARK  118  A    between atoms: _299  and  _301
REMARK  119  A    between atoms: _301  and  _302
REMARK  120  A    between atoms: _304  and  _306
REMARK  121  A    between atoms: _306  and  _307
REMARK  122  A    between atoms: _306  and  _309
REMARK  123  A    between atoms: _309  and  _310
REMARK  124  A    between atoms: _313  and  _315
REMARK  125  A    between atoms: _315  and  _316
REMARK  126  A    between atoms: _315  and  _318
REMARK  127  A    between atoms: _318  and  _319
REMARK  128  A    between atoms: _322  and  _324
REMARK  129  A    between atoms: _324  and  _325
REMARK  130  A    between atoms: _324  and  _327
REMARK  131  A    between atoms: _327  and  _328
REMARK  132  A    between atoms: _328  and  _329
REMARK  133  A    between atoms: _334  and  _336
REMARK  134  A    between atoms: _336  and  _337
REMARK  135  A    between atoms: _336  and  _339
REMARK  136  A    between atoms: _339  and  _340
REMARK  137  A    between atoms: _343  and  _345
REMARK  138  A    between atoms: _345  and  _346
REMARK  139  A    between atoms: _345  and  _348
REMARK  140  A    between atoms: _348  and  _349
REMARK  141  A    between atoms: _349  and  _350
REMARK                            x       y       z     vdW  Elec       q    Type
REMARK                         _______ _______ _______ _____ _____    ______ ____
ROOT
ATOM      1  CG  LYS A   1      40.357  20.702   1.416  0.00  0.00    -0.000 C 
ENDROOT
BRANCH   1   2
ATOM      2  CB  LYS A   1      39.369  20.176   2.461  0.00  0.00    +0.025 C 
BRANCH   2   3
ATOM      3  CA  LYS A   1      38.167  19.447   1.857  0.00  0.00    +0.133 C 
BRANCH   3   4
ATOM      4  N   LYS A   1      37.391  20.368   1.044  0.00  0.00    -0.239 NA
ATOM      5  H   LYS A   1      37.158  21.308   1.424  0.00  0.00    +0.142 HD
ENDBRANCH   3   4
BRANCH   3   6
ATOM      6  C   LYS A   1      37.350  18.778   2.950  0.00  0.00    +0.224 C 
ATOM      7  O   LYS A   1      37.834  17.891   3.641  0.00  0.00    -0.287 OA
ENDBRANCH   3   6
ENDBRANCH   2   3
ENDBRANCH   1   2
BRANCH   1   8
ATOM      8  CD  LYS A   1      40.726  19.603   0.422  0.00  0.00    -0.024 C 
BRANCH   8   9
ATOM      9  CE  LYS A   1      41.748  20.073  -0.599  0.00  0.00    -0.086 C 
BRANCH   9  10
ATOM     10  NZ  LYS A   1      41.916  19.090  -1.715  0.00  0.00    +0.380 N 
ATOM     11  HZ1 LYS A   1      42.237  18.180  -1.328  0.00  0.00    -0.089 HD
ATOM     12  HZ2 LYS A   1      41.006  18.960  -2.201  0.00  0.00    -0.089 HD
ATOM     13  HZ3 LYS A   1      42.622  19.450  -2.389  0.00  0.00    -0.089 HD
ENDBRANCH   9  10
ENDBRANCH   8   9
ENDBRANCH   1   8
TORSDOF 7
REMARK  Name = ../refined-set-2016/3eb1/3eb1_pocket.pdb
REMARK  141 active torsions:
REMARK  status: ('A' for Active; 'I' for Inactive)
REMARK    1  A    between atoms: _1  and  _3
REMARK    2  A    between atoms: _3  and  _4
REMARK    3  A    between atoms: _3  and  _6
REMARK    4  A    between atoms: _6  and  _7
REMARK    5  A    between atoms: _12  and  _13
REMARK    6  A    between atoms: _15  and  _17
REMARK    7  A    between atoms: _17  and  _18
REMARK    8  A    between atoms: _17  and  _20
REMARK    9  A    between atoms: _20  and  _21
REMARK   10  A    between atoms: _21  and  _22
REMARK   11  A    between atoms: _22  and  _23
REMARK   12  A    between atoms: _32  and  _34
REMARK   13  A    between atoms: _34  and  _35
REMARK   14  A    between atoms: _34  and  _37
REMARK   15  A    between atoms: _37  and  _38
REMARK   16  A    between atoms: _38  and  _39
REMARK   17  A    between atoms: _39  and  _40
REMARK   18  A    between atoms: _49  and  _51
REMARK   19  A    between atoms: _51  and  _52
REMARK   20  A    between atoms: _51  and  _54
REMARK   21  A    between atoms: _54  and  _55
REMARK   22  A    between atoms: _60  and  _61
REMARK   23  A    between atoms: _63  and  _65
REMARK   24  A    between atoms: _65  and  _66
REMARK   25  A    between atoms: _65  and  _68
REMARK   26  A    between atoms: _68  and  _69
REMARK   27  A    between atoms: _69  and  _70
REMARK   28  A    between atoms: _70  and  _71
REMARK   29  A    between atoms: _80  and  _82
REMARK   30  A    between atoms: _82  and  _83
REMARK   31  A    between atoms: _82  and  _85
REMARK   32  A    between atoms: _85  and  _86
REMARK   33  A    between atoms: _89  and  _91
REMARK   34  A    between atoms: _91  and  _92
REMARK   35  A    between atoms: _91  and  _94
REMARK   36  A    between atoms: _97  and  _99
REMARK   37  A    between atoms: _99  and  _100
REMARK   38  A    between atoms: _102  and  _104
REMARK   39  A    between atoms: _104  and  _105
REMARK   40  A    between atoms: _104  and  _107
REMARK   41  A    between atoms: _107  and  _108
REMARK   42  A    between atoms: _111  and  _113
REMARK   43  A    between atoms: _113  and  _114
REMARK   44  A    between atoms: _113  and  _116
REMARK   45  A    between atoms: _116  and  _117
REMARK   46  A    between atoms: _122  and  _124
REMARK   47  A    between atoms: _124  and  _125
REMARK   48  A    between atoms: _124  and  _127
REMARK   49  A    between atoms: _127  and  _128
REMARK   50  A    between atoms: _128  and  _129
REMARK   51  A    between atoms: _132  and  _134
REMARK   52  A    between atoms: _134  and  _135
REMARK   53  A    between atoms: _134  and  _137
REMARK   54  A    between atoms: _137  and  _138
REMARK   55  A    between atoms: _138  and  _139
REMARK   56  A    between atoms: _139  and  _140
REMARK   57  A    between atoms: _140  and  _141
REMARK   58  A    between atoms: _145  and  _147
REMARK   59  A    between atoms: _147  and  _148
REMARK   60  A    between atoms: _147  and  _150
REMARK   61  A    between atoms: _150  and  _151
REMARK   62  A    between atoms: _151  and  _152
REMARK   63  A    between atoms: _152  and  _153
REMARK   64  A    between atoms: _153  and  _154
REMARK   65  A    between atoms: _158  and  _160
REMARK   66  A    between atoms: _160  and  _161
REMARK   67  A    between atoms: _160  and  _163
REMARK   68  A    between atoms: _163  and  _164
REMARK   69  A    between atoms: _175  and  _176
REMARK   70  A    between atoms: _181  and  _183
REMARK   71  A    between atoms: _183  and  _184
REMARK   72  A    between atoms: _183  and  _186
REMARK   73  A    between atoms: _186  and  _187
REMARK   74  A    between atoms: _190  and  _192
REMARK   75  A    between atoms: _192  and  _193
REMARK   76  A    between atoms: _195  and  _197
REMARK   77  A    between atoms: _197  and  _198
REMARK   78  A    between atoms: _197  and  _200
REMARK   79  A    between atoms: _203  and  _205
REMARK   80  A    between atoms: _205  and  _206
REMARK   81  A    between atoms: _205  and  _208
REMARK   82  A    between atoms: _210  and  _212
REMARK   83  A    between atoms: _212  and  _213
REMARK   84  A    between atoms: _212  and  _215
REMARK   85  A    between atoms: _215  and  _216
REMARK   86  A    between atoms: _218  and  _220
REMARK   87  A    between atoms: _220  and  _221
REMARK   88  A    between atoms: _224  and  _226
REMARK   89  A    between atoms: _226  and  _227
REMARK   90  A    between atoms: _229  and  _231
REMARK   91  A    between atoms: _231  and  _232
REMARK   92  A    between atoms: _231  and  _234
REMARK   93  A    between atoms: _234  and  _235
REMARK   94  A    between atoms: _238  and  _240
REMARK   95  A    between atoms: _240  and  _241
REMARK   96  A    between atoms: _243  and  _245
REMARK   97  A    between atoms: _245  and  _246
REMARK   98  A    between atoms: _245  and  _248
REMARK   99  A    between atoms: _248  and  _249
REMARK  100  A    between atoms: _249  and  _250
REMARK  101  A    between atoms: _250  and  _251
REMARK  102  A    between atoms: _260  and  _262
REMARK  103  A    between atoms: _262  and  _263
REMARK  104  A    between atoms: _262  and  _265
REMARK  105  A    between atoms: _265  and  _266
REMARK  106  A    between atoms: _268  and  _270
REMARK  107  A    between atoms: _270  and  _271
REMARK  108  A    between atoms: _273  and  _275
REMARK  109  A    between atoms: _275  and  _276
REMARK  110  A    between atoms: _275  and  _278
REMARK  111  A    between atoms: _278  and  _279
REMARK  112  A    between atoms: _282  and  _284
REMARK  113  A    between atoms: _284  and  _285
REMARK  114  A    between atoms: _284  and  _287
REMARK  115  A    between atoms: _287  and  _288
REMARK  116  A    between atoms: _288  and  _289
REMARK  117  A    between atoms: _289  and  _290
REMARK  118  A    between atoms: _299  and  _301
REMARK  119  A    between atoms: _301  and  _302
REMARK  120  A    between atoms: _304  and  _306
REMARK  121  A    between atoms: _306  and  _307
REMARK  122  A    between atoms: _306  and  _309
REMARK  123  A    between atoms: _309  and  _310
REMARK  124  A    between atoms: _313  and  _315
REMARK  125  A    between atoms: _315  and  _316
REMARK  126  A    between atoms: _315  and  _318
REMARK  127  A    between atoms: _318  and  _319
REMARK  128  A    between atoms: _322  and  _324
REMARK  129  A    between atoms: _324  and  _325
REMARK  130  A    between atoms: _324  and  _327
REMARK  131  A    between atoms: _327  and  _328
REMARK  132  A    between atoms: _328  and  _329
REMARK  133  A    between atoms: _334  and  _336
REMARK  134  A    between atoms: _336  and  _337
REMARK  135  A    between atoms: _336  and  _339
REMARK  136  A    between atoms: _339  and  _340
REMARK  137  A    between atoms: _343  and  _345
REMARK  138  A    between atoms: _345  and  _346
REMARK  139  A    between atoms: _345  and  _348
REMARK  140  A    between atoms: _348  and  _349
REMARK  141  A    between atoms: _349  and  _350
REMARK                            x       y       z     vdW  Elec       q    Type
REMARK                         _______ _______ _______ _____ _____    ______ ____
ROOT
ATOM      1  C   TRP A   1      47.967  27.011   5.543  0.00  0.00    +0.242 C 
ATOM      2  N   PRO A   2      49.154  27.132   4.938  0.00  0.00    -0.272 N 
ATOM      3  CD  PRO A   2      50.462  27.052   5.611  0.00  0.00    +0.094 C 
ATOM      4  CG  PRO A   2      51.391  26.723   4.461  0.00  0.00    +0.024 C 
ATOM      5  CB  PRO A   2      50.820  27.562   3.350  0.00  0.00    +0.031 C 
ATOM      6  CA  PRO A   2      49.322  27.310   3.489  0.00  0.00    +0.152 C 
ATOM      7  O   TRP A   1      46.911  27.031   4.913  0.00  0.00    -0.273 OA
ENDROOT
BRANCH   6   8
ATOM      8  C   PRO A   2      48.854  26.156   2.602  0.00  0.00    +0.241 C 
ATOM      9  O   PRO A   2      48.894  24.990   3.005  0.00  0.00    -0.273 OA
ATOM     10  N   ASP A   3      48.423  26.490   1.385  0.00  0.00    -0.298 N 
ATOM     11  H   ASP A   3      48.415  27.493   1.109  0.00  0.00    +0.150 HD
BRANCH  10  12
ATOM     12  CA  ASP A   3      47.962  25.486   0.430  0.00  0.00    +0.148 C 
BRANCH  12  13
ATOM     13  C   ASP A   3      49.049  24.472   0.139  0.00  0.00    +0.227 C 
ATOM     14  O   ASP A   3      48.795  23.270   0.109  0.00  0.00    -0.286 OA
ENDBRANCH  12  13
BRANCH  12  15
ATOM     15  CB  ASP A   3      47.532  26.135  -0.884  0.00  0.00    +0.142 C 
BRANCH  15  16
ATOM     16  CG  ASP A   3      46.041  26.382  -0.947  0.00  0.00    +0.367 C 
ATOM     17  OD2 ASP A   3      45.377  26.262   0.110  0.00  0.00    -0.246 OA
ATOM     18  OD1 ASP A   3      45.535  26.695  -2.051  0.00  0.00    -0.246 OA
ENDBRANCH  15  16
ENDBRANCH  12  15
ENDBRANCH  10  12
ENDBRANCH   6   8
BRANCH   1  19
ATOM     19  CA  TRP A   1      47.967  26.841   7.061  0.00  0.00    +0.149 C 
BRANCH  19  20
ATOM     20  N   TRP A   1      47.021  27.814   7.597  0.00  0.00    -0.238 NA
ATOM     21  H   TRP A   1      46.159  27.495   8.083  0.00  0.00    +0.142 HD
ENDBRANCH  19  20
BRANCH  19  22
ATOM     22  CB  TRP A   1      47.553  25.417   7.422  0.00  0.00    +0.054 C 
BRANCH  22  23
ATOM     23  CG  TRP A   1      48.587  24.420   7.041  0.00  0.00    -0.002 A 
ATOM     24  CD2 TRP A   1      49.452  23.702   7.928  0.00  0.00    +0.013 A 
ATOM     25  CE3 TRP A   1      49.575  23.635   9.322  0.00  0.00    +0.001 A 
ATOM     26  CZ3 TRP A   1      50.555  22.817   9.867  0.00  0.00    +0.000 A 
ATOM     27  CH2 TRP A   1      51.413  22.064   9.042  0.00  0.00    +0.001 A 
ATOM     28  CZ2 TRP A   1      51.312  22.111   7.676  0.00  0.00    +0.017 A 
ATOM     29  CE2 TRP A   1      50.326  22.936   7.129  0.00  0.00    +0.056 A 
ATOM     30  NE1 TRP A   1      50.000  23.176   5.821  0.00  0.00    -0.352 N 
ATOM     31  HE1 TRP A   1      50.467  22.753   4.994  0.00  0.00    +0.166 HD
ATOM     32  CD1 TRP A   1      48.955  24.067   5.779  0.00  0.00    +0.068 A 
ENDBRANCH  22  23
ENDBRANCH  19  22
ENDBRANCH   1  19
TORSDOF 9
REMARK  Name = ../refined-set-2016/3eb1/3eb1_pocket.pdb
REMARK  141 active torsions:
REMARK  status: ('A' for Active; 'I' for Inactive)
REMARK    1  A    between atoms: _1  and  _3
REMARK    2  A    between atoms: _3  and  _4
REMARK    3  A    between atoms: _3  and  _6
REMARK    4  A    between atoms: _6  and  _7
REMARK    5  A    between atoms: _12  and  _13
REMARK    6  A    between atoms: _15  and  _17
REMARK    7  A    between atoms: _17  and  _18
REMARK    8  A    between atoms: _17  and  _20
REMARK    9  A    between atoms: _20  and  _21
REMARK   10  A    between atoms: _21  and  _22
REMARK   11  A    between atoms: _22  and  _23
REMARK   12  A    between atoms: _32  and  _34
REMARK   13  A    between atoms: _34  and  _35
REMARK   14  A    between atoms: _34  and  _37
REMARK   15  A    between atoms: _37  and  _38
REMARK   16  A    between atoms: _38  and  _39
REMARK   17  A    between atoms: _39  and  _40
REMARK   18  A    between atoms: _49  and  _51
REMARK   19  A    between atoms: _51  and  _52
REMARK   20  A    between atoms: _51  and  _54
REMARK   21  A    between atoms: _54  and  _55
REMARK   22  A    between atoms: _60  and  _61
REMARK   23  A    between atoms: _63  and  _65
REMARK   24  A    between atoms: _65  and  _66
REMARK   25  A    between atoms: _65  and  _68
REMARK   26  A    between atoms: _68  and  _69
REMARK   27  A    between atoms: _69  and  _70
REMARK   28  A    between atoms: _70  and  _71
REMARK   29  A    between atoms: _80  and  _82
REMARK   30  A    between atoms: _82  and  _83
REMARK   31  A    between atoms: _82  and  _85
REMARK   32  A    between atoms: _85  and  _86
REMARK   33  A    between atoms: _89  and  _91
REMARK   34  A    between atoms: _91  and  _92
REMARK   35  A    between atoms: _91  and  _94
REMARK   36  A    between atoms: _97  and  _99
REMARK   37  A    between atoms: _99  and  _100
REMARK   38  A    between atoms: _102  and  _104
REMARK   39  A    between atoms: _104  and  _105
REMARK   40  A    between atoms: _104  and  _107
REMARK   41  A    between atoms: _107  and  _108
REMARK   42  A    between atoms: _111  and  _113
REMARK   43  A    between atoms: _113  and  _114
REMARK   44  A    between atoms: _113  and  _116
REMARK   45  A    between atoms: _116  and  _117
REMARK   46  A    between atoms: _122  and  _124
REMARK   47  A    between atoms: _124  and  _125
REMARK   48  A    between atoms: _124  and  _127
REMARK   49  A    between atoms: _127  and  _128
REMARK   50  A    between atoms: _128  and  _129
REMARK   51  A    between atoms: _132  and  _134
REMARK   52  A    between atoms: _134  and  _135
REMARK   53  A    between atoms: _134  and  _137
REMARK   54  A    between atoms: _137  and  _138
REMARK   55  A    between atoms: _138  and  _139
REMARK   56  A    between atoms: _139  and  _140
REMARK   57  A    between atoms: _140  and  _141
REMARK   58  A    between atoms: _145  and  _147
REMARK   59  A    between atoms: _147  and  _148
REMARK   60  A    between atoms: _147  and  _150
REMARK   61  A    between atoms: _150  and  _151
REMARK   62  A    between atoms: _151  and  _152
REMARK   63  A    between atoms: _152  and  _153
REMARK   64  A    between atoms: _153  and  _154
REMARK   65  A    between atoms: _158  and  _160
REMARK   66  A    between atoms: _160  and  _161
REMARK   67  A    between atoms: _160  and  _163
REMARK   68  A    between atoms: _163  and  _164
REMARK   69  A    between atoms: _175  and  _176
REMARK   70  A    between atoms: _181  and  _183
REMARK   71  A    between atoms: _183  and  _184
REMARK   72  A    between atoms: _183  and  _186
REMARK   73  A    between atoms: _186  and  _187
REMARK   74  A    between atoms: _190  and  _192
REMARK   75  A    between atoms: _192  and  _193
REMARK   76  A    between atoms: _195  and  _197
REMARK   77  A    between atoms: _197  and  _198
REMARK   78  A    between atoms: _197  and  _200
REMARK   79  A    between atoms: _203  and  _205
REMARK   80  A    between atoms: _205  and  _206
REMARK   81  A    between atoms: _205  and  _208
REMARK   82  A    between atoms: _210  and  _212
REMARK   83  A    between atoms: _212  and  _213
REMARK   84  A    between atoms: _212  and  _215
REMARK   85  A    between atoms: _215  and  _216
REMARK   86  A    between atoms: _218  and  _220
REMARK   87  A    between atoms: _220  and  _221
REMARK   88  A    between atoms: _224  and  _226
REMARK   89  A    between atoms: _226  and  _227
REMARK   90  A    between atoms: _229  and  _231
REMARK   91  A    between atoms: _231  and  _232
REMARK   92  A    between atoms: _231  and  _234
REMARK   93  A    between atoms: _234  and  _235
REMARK   94  A    between atoms: _238  and  _240
REMARK   95  A    between atoms: _240  and  _241
REMARK   96  A    between atoms: _243  and  _245
REMARK   97  A    between atoms: _245  and  _246
REMARK   98  A    between atoms: _245  and  _248
REMARK   99  A    between atoms: _248  and  _249
REMARK  100  A    between atoms: _249  and  _250
REMARK  101  A    between atoms: _250  and  _251
REMARK  102  A    between atoms: _260  and  _262
REMARK  103  A    between atoms: _262  and  _263
REMARK  104  A    between atoms: _262  and  _265
REMARK  105  A    between atoms: _265  and  _266
REMARK  106  A    between atoms: _268  and  _270
REMARK  107  A    between atoms: _270  and  _271
REMARK  108  A    between atoms: _273  and  _275
REMARK  109  A    between atoms: _275  and  _276
REMARK  110  A    between atoms: _275  and  _278
REMARK  111  A    between atoms: _278  and  _279
REMARK  112  A    between atoms: _282  and  _284
REMARK  113  A    between atoms: _284  and  _285
REMARK  114  A    between atoms: _284  and  _287
REMARK  115  A    between atoms: _287  and  _288
REMARK  116  A    between atoms: _288  and  _289
REMARK  117  A    between atoms: _289  and  _290
REMARK  118  A    between atoms: _299  and  _301
REMARK  119  A    between atoms: _301  and  _302
REMARK  120  A    between atoms: _304  and  _306
REMARK  121  A    between atoms: _306  and  _307
REMARK  122  A    between atoms: _306  and  _309
REMARK  123  A    between atoms: _309  and  _310
REMARK  124  A    between atoms: _313  and  _315
REMARK  125  A    between atoms: _315  and  _316
REMARK  126  A    between atoms: _315  and  _318
REMARK  127  A    between atoms: _318  and  _319
REMARK  128  A    between atoms: _322  and  _324
REMARK  129  A    between atoms: _324  and  _325
REMARK  130  A    between atoms: _324  and  _327
REMARK  131  A    between atoms: _327  and  _328
REMARK  132  A    between atoms: _328  and  _329
REMARK  133  A    between atoms: _334  and  _336
REMARK  134  A    between atoms: _336  and  _337
REMARK  135  A    between atoms: _336  and  _339
REMARK  136  A    between atoms: _339  and  _340
REMARK  137  A    between atoms: _343  and  _345
REMARK  138  A    between atoms: _345  and  _346
REMARK  139  A    between atoms: _345  and  _348
REMARK  140  A    between atoms: _348  and  _349
REMARK  141  A    between atoms: _349  and  _350
REMARK                            x       y       z     vdW  Elec       q    Type
REMARK                         _______ _______ _______ _____ _____    ______ ____
ROOT
ATOM      1  C   GLY A   1      53.665  23.308   3.459  0.00  0.00    +0.240 C 
ATOM      2  N   VAL A   2      54.509  23.878   4.312  0.00  0.00    -0.298 N 
ATOM      3  H   VAL A   2      55.425  24.214   3.952  0.00  0.00    +0.150 HD
ATOM      4  O   GLY A   1      52.550  22.887   3.783  0.00  0.00    -0.274 OA
ENDROOT
BRANCH   1   5
ATOM      5  CA  GLY A   1      54.172  23.202   2.032  0.00  0.00    +0.169 C 
BRANCH   5   6
ATOM      6  N   GLY A   1      53.154  23.175   1.002  0.00  0.00    -0.236 NA
ATOM      7  H   GLY A   1      52.985  22.300   0.466  0.00  0.00    +0.142 HD
ENDBRANCH   5   6
ENDBRANCH   1   5
BRANCH   2   8
ATOM      8  CA  VAL A   2      54.214  24.055   5.725  0.00  0.00    +0.137 C 
BRANCH   8   9
ATOM      9  CB  VAL A   2      55.113  23.154   6.577  0.00  0.00    +0.026 C 
ATOM     10  CG2 VAL A   2      56.576  23.544   6.364  0.00  0.00    +0.002 C 
ATOM     11  CG1 VAL A   2      54.892  21.691   6.201  0.00  0.00    +0.002 C 
ENDBRANCH   8   9
BRANCH   8  12
ATOM     12  C   VAL A   2      54.527  25.496   6.071  0.00  0.00    +0.227 C 
ATOM     13  O   VAL A   2      55.116  26.208   5.269  0.00  0.00    -0.286 OA
ENDBRANCH   8  12
ENDBRANCH   2   8
TORSDOF 5
REMARK  Name = ../refined-set-2016/3eb1/3eb1_pocket.pdb
REMARK  141 active torsions:
REMARK  status: ('A' for Active; 'I' for Inactive)
REMARK    1  A    between atoms: _1  and  _3
REMARK    2  A    between atoms: _3  and  _4
REMARK    3  A    between atoms: _3  and  _6
REMARK    4  A    between atoms: _6  and  _7
REMARK    5  A    between atoms: _12  and  _13
REMARK    6  A    between atoms: _15  and  _17
REMARK    7  A    between atoms: _17  and  _18
REMARK    8  A    between atoms: _17  and  _20
REMARK    9  A    between atoms: _20  and  _21
REMARK   10  A    between atoms: _21  and  _22
REMARK   11  A    between atoms: _22  and  _23
REMARK   12  A    between atoms: _32  and  _34
REMARK   13  A    between atoms: _34  and  _35
REMARK   14  A    between atoms: _34  and  _37
REMARK   15  A    between atoms: _37  and  _38
REMARK   16  A    between atoms: _38  and  _39
REMARK   17  A    between atoms: _39  and  _40
REMARK   18  A    between atoms: _49  and  _51
REMARK   19  A    between atoms: _51  and  _52
REMARK   20  A    between atoms: _51  and  _54
REMARK   21  A    between atoms: _54  and  _55
REMARK   22  A    between atoms: _60  and  _61
REMARK   23  A    between atoms: _63  and  _65
REMARK   24  A    between atoms: _65  and  _66
REMARK   25  A    between atoms: _65  and  _68
REMARK   26  A    between atoms: _68  and  _69
REMARK   27  A    between atoms: _69  and  _70
REMARK   28  A    between atoms: _70  and  _71
REMARK   29  A    between atoms: _80  and  _82
REMARK   30  A    between atoms: _82  and  _83
REMARK   31  A    between atoms: _82  and  _85
REMARK   32  A    between atoms: _85  and  _86
REMARK   33  A    between atoms: _89  and  _91
REMARK   34  A    between atoms: _91  and  _92
REMARK   35  A    between atoms: _91  and  _94
REMARK   36  A    between atoms: _97  and  _99
REMARK   37  A    between atoms: _99  and  _100
REMARK   38  A    between atoms: _102  and  _104
REMARK   39  A    between atoms: _104  and  _105
REMARK   40  A    between atoms: _104  and  _107
REMARK   41  A    between atoms: _107  and  _108
REMARK   42  A    between atoms: _111  and  _113
REMARK   43  A    between atoms: _113  and  _114
REMARK   44  A    between atoms: _113  and  _116
REMARK   45  A    between atoms: _116  and  _117
REMARK   46  A    between atoms: _122  and  _124
REMARK   47  A    between atoms: _124  and  _125
REMARK   48  A    between atoms: _124  and  _127
REMARK   49  A    between atoms: _127  and  _128
REMARK   50  A    between atoms: _128  and  _129
REMARK   51  A    between atoms: _132  and  _134
REMARK   52  A    between atoms: _134  and  _135
REMARK   53  A    between atoms: _134  and  _137
REMARK   54  A    between atoms: _137  and  _138
REMARK   55  A    between atoms: _138  and  _139
REMARK   56  A    between atoms: _139  and  _140
REMARK   57  A    between atoms: _140  and  _141
REMARK   58  A    between atoms: _145  and  _147
REMARK   59  A    between atoms: _147  and  _148
REMARK   60  A    between atoms: _147  and  _150
REMARK   61  A    between atoms: _150  and  _151
REMARK   62  A    between atoms: _151  and  _152
REMARK   63  A    between atoms: _152  and  _153
REMARK   64  A    between atoms: _153  and  _154
REMARK   65  A    between atoms: _158  and  _160
REMARK   66  A    between atoms: _160  and  _161
REMARK   67  A    between atoms: _160  and  _163
REMARK   68  A    between atoms: _163  and  _164
REMARK   69  A    between atoms: _175  and  _176
REMARK   70  A    between atoms: _181  and  _183
REMARK   71  A    between atoms: _183  and  _184
REMARK   72  A    between atoms: _183  and  _186
REMARK   73  A    between atoms: _186  and  _187
REMARK   74  A    between atoms: _190  and  _192
REMARK   75  A    between atoms: _192  and  _193
REMARK   76  A    between atoms: _195  and  _197
REMARK   77  A    between atoms: _197  and  _198
REMARK   78  A    between atoms: _197  and  _200
REMARK   79  A    between atoms: _203  and  _205
REMARK   80  A    between atoms: _205  and  _206
REMARK   81  A    between atoms: _205  and  _208
REMARK   82  A    between atoms: _210  and  _212
REMARK   83  A    between atoms: _212  and  _213
REMARK   84  A    between atoms: _212  and  _215
REMARK   85  A    between atoms: _215  and  _216
REMARK   86  A    between atoms: _218  and  _220
REMARK   87  A    between atoms: _220  and  _221
REMARK   88  A    between atoms: _224  and  _226
REMARK   89  A    between atoms: _226  and  _227
REMARK   90  A    between atoms: _229  and  _231
REMARK   91  A    between atoms: _231  and  _232
REMARK   92  A    between atoms: _231  and  _234
REMARK   93  A    between atoms: _234  and  _235
REMARK   94  A    between atoms: _238  and  _240
REMARK   95  A    between atoms: _240  and  _241
REMARK   96  A    between atoms: _243  and  _245
REMARK   97  A    between atoms: _245  and  _246
REMARK   98  A    between atoms: _245  and  _248
REMARK   99  A    between atoms: _248  and  _249
REMARK  100  A    between atoms: _249  and  _250
REMARK  101  A    between atoms: _250  and  _251
REMARK  102  A    between atoms: _260  and  _262
REMARK  103  A    between atoms: _262  and  _263
REMARK  104  A    between atoms: _262  and  _265
REMARK  105  A    between atoms: _265  and  _266
REMARK  106  A    between atoms: _268  and  _270
REMARK  107  A    between atoms: _270  and  _271
REMARK  108  A    between atoms: _273  and  _275
REMARK  109  A    between atoms: _275  and  _276
REMARK  110  A    between atoms: _275  and  _278
REMARK  111  A    between atoms: _278  and  _279
REMARK  112  A    between atoms: _282  and  _284
REMARK  113  A    between atoms: _284  and  _285
REMARK  114  A    between atoms: _284  and  _287
REMARK  115  A    between atoms: _287  and  _288
REMARK  116  A    between atoms: _288  and  _289
REMARK  117  A    between atoms: _289  and  _290
REMARK  118  A    between atoms: _299  and  _301
REMARK  119  A    between atoms: _301  and  _302
REMARK  120  A    between atoms: _304  and  _306
REMARK  121  A    between atoms: _306  and  _307
REMARK  122  A    between atoms: _306  and  _309
REMARK  123  A    between atoms: _309  and  _310
REMARK  124  A    between atoms: _313  and  _315
REMARK  125  A    between atoms: _315  and  _316
REMARK  126  A    between atoms: _315  and  _318
REMARK  127  A    between atoms: _318  and  _319
REMARK  128  A    between atoms: _322  and  _324
REMARK  129  A    between atoms: _324  and  _325
REMARK  130  A    between atoms: _324  and  _327
REMARK  131  A    between atoms: _327  and  _328
REMARK  132  A    between atoms: _328  and  _329
REMARK  133  A    between atoms: _334  and  _336
REMARK  134  A    between atoms: _336  and  _337
REMARK  135  A    between atoms: _336  and  _339
REMARK  136  A    between atoms: _339  and  _340
REMARK  137  A    between atoms: _343  and  _345
REMARK  138  A    between atoms: _345  and  _346
REMARK  139  A    between atoms: _345  and  _348
REMARK  140  A    between atoms: _348  and  _349
REMARK  141  A    between atoms: _349  and  _350
REMARK                            x       y       z     vdW  Elec       q    Type
REMARK                         _______ _______ _______ _____ _____    ______ ____
ROOT
ATOM      1  C   GLY A   6      49.234  16.237   8.733  0.00  0.00    +0.243 C 
ATOM      2  O   GLY A   6      50.286  16.157   9.376  0.00  0.00    -0.273 OA
ATOM      3  N   ARG A   7      48.370  17.233   8.882  0.00  0.00    -0.297 N 
ATOM      4  H   ARG A   7      47.501  17.244   8.311  0.00  0.00    +0.150 HD
ENDROOT
BRANCH   3   5
ATOM      5  CA  ARG A   7      48.614  18.308   9.827  0.00  0.00    +0.149 C 
BRANCH   5   6
ATOM      6  C   ARG A   7      48.197  17.856  11.222  0.00  0.00    +0.241 C 
ATOM      7  O   ARG A   7      48.729  18.326  12.232  0.00  0.00    -0.273 OA
ATOM      8  N   SER A   8      47.246  16.931  11.265  0.00  0.00    -0.295 N 
ATOM      9  H   SER A   8      46.852  16.569  10.373  0.00  0.00    +0.150 HD
BRANCH   8  10
ATOM     10  CA  SER A   8      46.741  16.411  12.524  0.00  0.00    +0.178 C 
BRANCH  10  11
ATOM     11  C   SER A   8      47.867  15.804  13.340  0.00  0.00    +0.243 C 
ATOM     12  O   SER A   8      48.027  16.118  14.514  0.00  0.00    -0.273 OA
ATOM     13  N   GLY A   9      48.647  14.931  12.711  0.00  0.00    -0.295 N 
ATOM     14  H   GLY A   9      48.469  14.704  11.712  0.00  0.00    +0.150 HD
BRANCH  13  15
ATOM     15  CA  GLY A   9      49.745  14.293  13.411  0.00  0.00    +0.176 C 
BRANCH  15  16
ATOM     16  C   GLY A   9      50.696  15.300  14.026  0.00  0.00    +0.243 C 
ATOM     17  O   GLY A   9      51.144  15.155  15.172  0.00  0.00    -0.273 OA
ATOM     18  N   THR A  10      51.000  16.336  13.258  0.00  0.00    -0.296 N 
ATOM     19  H   THR A  10      50.578  16.403  12.310  0.00  0.00    +0.150 HD
BRANCH  18  20
ATOM     20  CA  THR A  10      51.906  17.382  13.702  0.00  0.00    +0.164 C 
BRANCH  20  21
ATOM     21  CB  THR A  10      52.040  18.456  12.622  0.00  0.00    +0.136 C 
ATOM     22  CG2 THR A  10      53.284  19.289  12.850  0.00  0.00    +0.034 C 
BRANCH  21  23
ATOM     23  OG1 THR A  10      52.137  17.822  11.340  0.00  0.00    -0.382 OA
ATOM     24  HG1 THR A  10      51.322  17.284  11.177  0.00  0.00    +0.210 HD
ENDBRANCH  21  23
ENDBRANCH  20  21
BRANCH  20  25
ATOM     25  C   THR A  10      51.378  18.009  14.987  0.00  0.00    +0.229 C 
ATOM     26  O   THR A  10      52.114  18.173  15.960  0.00  0.00    -0.286 OA
ENDBRANCH  20  25
ENDBRANCH  18  20
ENDBRANCH  15  16
ENDBRANCH  13  15
ENDBRANCH  10  11
BRANCH  10  27
ATOM     27  CB  SER A   8      45.668  15.356  12.266  0.00  0.00    +0.166 C 
BRANCH  27  28
ATOM     28  OG  SER A   8      44.548  15.913  11.597  0.00  0.00    -0.380 OA
ATOM     29  H   SER A   8      43.871  15.207  11.444  0.00  0.00    +0.211 HD
ENDBRANCH  27  28
ENDBRANCH  10  27
ENDBRANCH   8  10
ENDBRANCH   5   6
BRANCH   5  30
ATOM     30  CB  ARG A   7      47.817  19.540   9.405  0.00  0.00    +0.033 C 
BRANCH  30  31
ATOM     31  CG  ARG A   7      47.975  19.855   7.930  0.00  0.00    +0.045 C 
BRANCH  31  32
ATOM     32  CD  ARG A   7      47.180  21.067   7.524  0.00  0.00    +0.174 C 
BRANCH  32  33
ATOM     33  NE  ARG A   7      47.200  21.273   6.079  0.00  0.00    -0.265 N 
ATOM     34  HE  ARG A   7      47.877  20.721   5.515  0.00  0.00    +0.259 HD
ATOM     35  CZ  ARG A   7      46.404  22.125   5.443  0.00  0.00    +0.342 C 
ATOM     36  NH2 ARG A   7      45.525  22.849   6.122  0.00  0.00    -0.292 N 
ATOM     37 HH21 ARG A   7      45.458  22.751   7.155  0.00  0.00    +0.255 HD
ATOM     38 HH22 ARG A   7      44.903  23.515   5.621  0.00  0.00    +0.255 HD
ATOM     39  NH1 ARG A   7      46.480  22.249   4.127  0.00  0.00    -0.292 N 
ATOM     40 HH11 ARG A   7      45.856  22.917   3.631  0.00  0.00    +0.255 HD
ATOM     41 HH12 ARG A   7      47.164  21.679   3.590  0.00  0.00    +0.255 HD
ENDBRANCH  32  33
ENDBRANCH  31  32
ENDBRANCH  30  31
ENDBRANCH   5  30
ENDBRANCH   3   5
BRANCH   1  42
ATOM     42  CA  GLY A   6      48.857  15.184   7.713  0.00  0.00    +0.176 C 
BRANCH  42  45
ATOM     43  C   ILE A   5      47.957  13.482   9.187  0.00  0.00    +0.241 C 
ATOM     44  O   ILE A   5      48.992  13.441   9.862  0.00  0.00    -0.273 OA
ATOM     45  N   GLY A   6      47.792  14.296   8.142  0.00  0.00    -0.295 N 
ATOM     46  H   GLY A   6      46.888  14.294   7.628  0.00  0.00    +0.150 HD
BRANCH  43  47
ATOM     47  CA  ILE A   5      46.773  12.580   9.527  0.00  0.00    +0.149 C 
BRANCH  47  50
ATOM     48  C   GLY A   4      44.383  12.927   9.953  0.00  0.00    +0.243 C 
ATOM     49  O   GLY A   4      44.327  11.995  10.752  0.00  0.00    -0.273 OA
ATOM     50  N   ILE A   5      45.500  13.270   9.313  0.00  0.00    -0.297 N 
ATOM     51  H   ILE A   5      45.466  14.058   8.635  0.00  0.00    +0.150 HD
BRANCH  48  52
ATOM     52  CA  GLY A   4      43.143  13.741   9.631  0.00  0.00    +0.176 C 
BRANCH  52  54
ATOM     53  C   ALA A   3      42.842  12.835   7.410  0.00  0.00    +0.241 C 
ATOM     54  N   GLY A   4      42.993  13.900   8.196  0.00  0.00    -0.295 N 
ATOM     55  H   GLY A   4      43.003  14.852   7.778  0.00  0.00    +0.150 HD
ATOM     56  O   ALA A   3      42.806  11.676   7.844  0.00  0.00    -0.273 OA
BRANCH  53  57
ATOM     57  CA  ALA A   3      42.708  13.110   5.908  0.00  0.00    +0.149 C 
ATOM     58  CB  ALA A   3      43.810  12.377   5.156  0.00  0.00    +0.031 C 
BRANCH  57  60
ATOM     59  C   SER A   2      41.669  15.247   5.343  0.00  0.00    +0.243 C 
ATOM     60  N   ALA A   3      42.765  14.546   5.624  0.00  0.00    -0.297 N 
ATOM     61  H   ALA A   3      43.685  15.030   5.642  0.00  0.00    +0.150 HD
ATOM     62  O   SER A   2      40.542  14.744   5.322  0.00  0.00    -0.273 OA
BRANCH  59  63
ATOM     63  CA  SER A   2      41.870  16.745   5.101  0.00  0.00    +0.178 C 
BRANCH  63  66
ATOM     64  C   CYS A   1      41.708  17.597   7.343  0.00  0.00    +0.239 C 
ATOM     65  O   CYS A   1      40.483  17.642   7.291  0.00  0.00    -0.274 OA
ATOM     66  N   SER A   2      42.455  17.197   6.334  0.00  0.00    -0.295 N 
ATOM     67  H   SER A   2      43.490  17.209   6.432  0.00  0.00    +0.150 HD
BRANCH  64  68
ATOM     68  CA  CYS A   1      42.461  17.990   8.597  0.00  0.00    +0.156 C 
BRANCH  68  69
ATOM     69  N   CYS A   1      41.884  17.153   9.642  0.00  0.00    -0.237 NA
ATOM     70  H   CYS A   1      41.692  16.154   9.427  0.00  0.00    +0.142 HD
ENDBRANCH  68  69
BRANCH  68  71
ATOM     71  CB  CYS A   1      43.954  17.663   8.435  0.00  0.00    +0.095 C 
ATOM     72  SG  CYS A   1      44.714  18.187   6.880  0.00  0.00    -0.080 S 
ENDBRANCH  68  71
ENDBRANCH  64  68
ENDBRANCH  63  66
BRANCH  63  73
ATOM     73  CB  SER A   2      42.841  17.018   3.960  0.00  0.00    +0.166 C 
BRANCH  73  74
ATOM     74  OG  SER A   2      43.186  18.397   3.940  0.00  0.00    -0.380 OA
ATOM     75  H   SER A   2      43.613  18.642   4.799  0.00  0.00    +0.211 HD
ENDBRANCH  73  74
ENDBRANCH  63  73
ENDBRANCH  59  63
ENDBRANCH  57  60
ENDBRANCH  53  57
ENDBRANCH  52  54
ENDBRANCH  48  52
ENDBRANCH  47  50
BRANCH  47  76
ATOM     76  CB  ILE A   5      46.891  11.280   8.665  0.00  0.00    +0.027 C 
ATOM     77  CG2 ILE A   5      45.891  10.241   9.140  0.00  0.00    +0.002 C 
BRANCH  76  78
ATOM     78  CG1 ILE A   5      46.684  11.599   7.178  0.00  0.00    +0.002 C 
ATOM     79  CD1 ILE A   5      47.956  11.955   6.431  0.00  0.00    +0.000 C 
ENDBRANCH  76  78
ENDBRANCH  47  76
ENDBRANCH  43  47
ENDBRANCH  42  45
ENDBRANCH   1  42
TORSDOF 33
REMARK  Name = ../refined-set-2016/3eb1/3eb1_pocket.pdb
REMARK  141 active torsions:
REMARK  status: ('A' for Active; 'I' for Inactive)
REMARK    1  A    between atoms: _1  and  _3
REMARK    2  A    between atoms: _3  and  _4
REMARK    3  A    between atoms: _3  and  _6
REMARK    4  A    between atoms: _6  and  _7
REMARK    5  A    between atoms: _12  and  _13
REMARK    6  A    between atoms: _15  and  _17
REMARK    7  A    between atoms: _17  and  _18
REMARK    8  A    between atoms: _17  and  _20
REMARK    9  A    between atoms: _20  and  _21
REMARK   10  A    between atoms: _21  and  _22
REMARK   11  A    between atoms: _22  and  _23
REMARK   12  A    between atoms: _32  and  _34
REMARK   13  A    between atoms: _34  and  _35
REMARK   14  A    between atoms: _34  and  _37
REMARK   15  A    between atoms: _37  and  _38
REMARK   16  A    between atoms: _38  and  _39
REMARK   17  A    between atoms: _39  and  _40
REMARK   18  A    between atoms: _49  and  _51
REMARK   19  A    between atoms: _51  and  _52
REMARK   20  A    between atoms: _51  and  _54
REMARK   21  A    between atoms: _54  and  _55
REMARK   22  A    between atoms: _60  and  _61
REMARK   23  A    between atoms: _63  and  _65
REMARK   24  A    between atoms: _65  and  _66
REMARK   25  A    between atoms: _65  and  _68
REMARK   26  A    between atoms: _68  and  _69
REMARK   27  A    between atoms: _69  and  _70
REMARK   28  A    between atoms: _70  and  _71
REMARK   29  A    between atoms: _80  and  _82
REMARK   30  A    between atoms: _82  and  _83
REMARK   31  A    between atoms: _82  and  _85
REMARK   32  A    between atoms: _85  and  _86
REMARK   33  A    between atoms: _89  and  _91
REMARK   34  A    between atoms: _91  and  _92
REMARK   35  A    between atoms: _91  and  _94
REMARK   36  A    between atoms: _97  and  _99
REMARK   37  A    between atoms: _99  and  _100
REMARK   38  A    between atoms: _102  and  _104
REMARK   39  A    between atoms: _104  and  _105
REMARK   40  A    between atoms: _104  and  _107
REMARK   41  A    between atoms: _107  and  _108
REMARK   42  A    between atoms: _111  and  _113
REMARK   43  A    between atoms: _113  and  _114
REMARK   44  A    between atoms: _113  and  _116
REMARK   45  A    between atoms: _116  and  _117
REMARK   46  A    between atoms: _122  and  _124
REMARK   47  A    between atoms: _124  and  _125
REMARK   48  A    between atoms: _124  and  _127
REMARK   49  A    between atoms: _127  and  _128
REMARK   50  A    between atoms: _128  and  _129
REMARK   51  A    between atoms: _132  and  _134
REMARK   52  A    between atoms: _134  and  _135
REMARK   53  A    between atoms: _134  and  _137
REMARK   54  A    between atoms: _137  and  _138
REMARK   55  A    between atoms: _138  and  _139
REMARK   56  A    between atoms: _139  and  _140
REMARK   57  A    between atoms: _140  and  _141
REMARK   58  A    between atoms: _145  and  _147
REMARK   59  A    between atoms: _147  and  _148
REMARK   60  A    between atoms: _147  and  _150
REMARK   61  A    between atoms: _150  and  _151
REMARK   62  A    between atoms: _151  and  _152
REMARK   63  A    between atoms: _152  and  _153
REMARK   64  A    between atoms: _153  and  _154
REMARK   65  A    between atoms: _158  and  _160
REMARK   66  A    between atoms: _160  and  _161
REMARK   67  A    between atoms: _160  and  _163
REMARK   68  A    between atoms: _163  and  _164
REMARK   69  A    between atoms: _175  and  _176
REMARK   70  A    between atoms: _181  and  _183
REMARK   71  A    between atoms: _183  and  _184
REMARK   72  A    between atoms: _183  and  _186
REMARK   73  A    between atoms: _186  and  _187
REMARK   74  A    between atoms: _190  and  _192
REMARK   75  A    between atoms: _192  and  _193
REMARK   76  A    between atoms: _195  and  _197
REMARK   77  A    between atoms: _197  and  _198
REMARK   78  A    between atoms: _197  and  _200
REMARK   79  A    between atoms: _203  and  _205
REMARK   80  A    between atoms: _205  and  _206
REMARK   81  A    between atoms: _205  and  _208
REMARK   82  A    between atoms: _210  and  _212
REMARK   83  A    between atoms: _212  and  _213
REMARK   84  A    between atoms: _212  and  _215
REMARK   85  A    between atoms: _215  and  _216
REMARK   86  A    between atoms: _218  and  _220
REMARK   87  A    between atoms: _220  and  _221
REMARK   88  A    between atoms: _224  and  _226
REMARK   89  A    between atoms: _226  and  _227
REMARK   90  A    between atoms: _229  and  _231
REMARK   91  A    between atoms: _231  and  _232
REMARK   92  A    between atoms: _231  and  _234
REMARK   93  A    between atoms: _234  and  _235
REMARK   94  A    between atoms: _238  and  _240
REMARK   95  A    between atoms: _240  and  _241
REMARK   96  A    between atoms: _243  and  _245
REMARK   97  A    between atoms: _245  and  _246
REMARK   98  A    between atoms: _245  and  _248
REMARK   99  A    between atoms: _248  and  _249
REMARK  100  A    between atoms: _249  and  _250
REMARK  101  A    between atoms: _250  and  _251
REMARK  102  A    between atoms: _260  and  _262
REMARK  103  A    between atoms: _262  and  _263
REMARK  104  A    between atoms: _262  and  _265
REMARK  105  A    between atoms: _265  and  _266
REMARK  106  A    between atoms: _268  and  _270
REMARK  107  A    between atoms: _270  and  _271
REMARK  108  A    between atoms: _273  and  _275
REMARK  109  A    between atoms: _275  and  _276
REMARK  110  A    between atoms: _275  and  _278
REMARK  111  A    between atoms: _278  and  _279
REMARK  112  A    between atoms: _282  and  _284
REMARK  113  A    between atoms: _284  and  _285
REMARK  114  A    between atoms: _284  and  _287
REMARK  115  A    between atoms: _287  and  _288
REMARK  116  A    between atoms: _288  and  _289
REMARK  117  A    between atoms: _289  and  _290
REMARK  118  A    between atoms: _299  and  _301
REMARK  119  A    between atoms: _301  and  _302
REMARK  120  A    between atoms: _304  and  _306
REMARK  121  A    between atoms: _306  and  _307
REMARK  122  A    between atoms: _306  and  _309
REMARK  123  A    between atoms: _309  and  _310
REMARK  124  A    between atoms: _313  and  _315
REMARK  125  A    between atoms: _315  and  _316
REMARK  126  A    between atoms: _315  and  _318
REMARK  127  A    between atoms: _318  and  _319
REMARK  128  A    between atoms: _322  and  _324
REMARK  129  A    between atoms: _324  and  _325
REMARK  130  A    between atoms: _324  and  _327
REMARK  131  A    between atoms: _327  and  _328
REMARK  132  A    between atoms: _328  and  _329
REMARK  133  A    between atoms: _334  and  _336
REMARK  134  A    between atoms: _336  and  _337
REMARK  135  A    between atoms: _336  and  _339
REMARK  136  A    between atoms: _339  and  _340
REMARK  137  A    between atoms: _343  and  _345
REMARK  138  A    between atoms: _345  and  _346
REMARK  139  A    between atoms: _345  and  _348
REMARK  140  A    between atoms: _348  and  _349
REMARK  141  A    between atoms: _349  and  _350
REMARK                            x       y       z     vdW  Elec       q    Type
REMARK                         _______ _______ _______ _____ _____    ______ ____
ROOT
ATOM      1  NE  ARG A   1      43.597   8.890  11.097  0.00  0.00    -0.265 N 
ATOM      2  CZ  ARG A   1      42.410   8.418  10.713  0.00  0.00    +0.342 C 
ATOM      3  NH2 ARG A   1      41.769   7.508  11.436  0.00  0.00    -0.292 N 
ATOM      4 HH21 ARG A   1      42.192   7.152  12.317  0.00  0.00    +0.255 HD
ATOM      5 HH22 ARG A   1      40.844   7.151  11.121  0.00  0.00    +0.255 HD
ATOM      6  NH1 ARG A   1      41.847   8.880   9.608  0.00  0.00    -0.292 N 
ATOM      7 HH11 ARG A   1      40.922   8.515   9.304  0.00  0.00    +0.255 HD
ATOM      8 HH12 ARG A   1      42.330   9.608   9.043  0.00  0.00    +0.255 HD
ATOM      9  HE  ARG A   1      44.050   9.600  10.487  0.00  0.00    +0.259 HD
ENDROOT
BRANCH   1  10
ATOM     10  CD  ARG A   1      44.314   8.487  12.312  0.00  0.00    +0.174 C 
BRANCH  10  11
ATOM     11  CG  ARG A   1      45.029   7.133  12.191  0.00  0.00    +0.045 C 
BRANCH  11  12
ATOM     12  CB  ARG A   1      45.918   6.837  13.417  0.00  0.00    +0.029 C 
BRANCH  12  13
ATOM     13  CA  ARG A   1      46.753   5.556  13.265  0.00  0.00    +0.133 C 
BRANCH  13  14
ATOM     14  N   ARG A   1      47.325   5.112  14.528  0.00  0.00    -0.239 NA
ATOM     15  H   ARG A   1      48.320   5.320  14.746  0.00  0.00    +0.142 HD
ENDBRANCH  13  14
BRANCH  13  16
ATOM     16  C   ARG A   1      47.899   5.767  12.301  0.00  0.00    +0.224 C 
ATOM     17  O   ARG A   1      48.968   6.223  12.686  0.00  0.00    -0.287 OA
ENDBRANCH  13  16
ENDBRANCH  12  13
ENDBRANCH  11  12
ENDBRANCH  10  11
ENDBRANCH   1  10
TORSDOF 6
REMARK  Name = ../refined-set-2016/3eb1/3eb1_pocket.pdb
REMARK  141 active torsions:
REMARK  status: ('A' for Active; 'I' for Inactive)
REMARK    1  A    between atoms: _1  and  _3
REMARK    2  A    between atoms: _3  and  _4
REMARK    3  A    between atoms: _3  and  _6
REMARK    4  A    between atoms: _6  and  _7
REMARK    5  A    between atoms: _12  and  _13
REMARK    6  A    between atoms: _15  and  _17
REMARK    7  A    between atoms: _17  and  _18
REMARK    8  A    between atoms: _17  and  _20
REMARK    9  A    between atoms: _20  and  _21
REMARK   10  A    between atoms: _21  and  _22
REMARK   11  A    between atoms: _22  and  _23
REMARK   12  A    between atoms: _32  and  _34
REMARK   13  A    between atoms: _34  and  _35
REMARK   14  A    between atoms: _34  and  _37
REMARK   15  A    between atoms: _37  and  _38
REMARK   16  A    between atoms: _38  and  _39
REMARK   17  A    between atoms: _39  and  _40
REMARK   18  A    between atoms: _49  and  _51
REMARK   19  A    between atoms: _51  and  _52
REMARK   20  A    between atoms: _51  and  _54
REMARK   21  A    between atoms: _54  and  _55
REMARK   22  A    between atoms: _60  and  _61
REMARK   23  A    between atoms: _63  and  _65
REMARK   24  A    between atoms: _65  and  _66
REMARK   25  A    between atoms: _65  and  _68
REMARK   26  A    between atoms: _68  and  _69
REMARK   27  A    between atoms: _69  and  _70
REMARK   28  A    between atoms: _70  and  _71
REMARK   29  A    between atoms: _80  and  _82
REMARK   30  A    between atoms: _82  and  _83
REMARK   31  A    between atoms: _82  and  _85
REMARK   32  A    between atoms: _85  and  _86
REMARK   33  A    between atoms: _89  and  _91
REMARK   34  A    between atoms: _91  and  _92
REMARK   35  A    between atoms: _91  and  _94
REMARK   36  A    between atoms: _97  and  _99
REMARK   37  A    between atoms: _99  and  _100
REMARK   38  A    between atoms: _102  and  _104
REMARK   39  A    between atoms: _104  and  _105
REMARK   40  A    between atoms: _104  and  _107
REMARK   41  A    between atoms: _107  and  _108
REMARK   42  A    between atoms: _111  and  _113
REMARK   43  A    between atoms: _113  and  _114
REMARK   44  A    between atoms: _113  and  _116
REMARK   45  A    between atoms: _116  and  _117
REMARK   46  A    between atoms: _122  and  _124
REMARK   47  A    between atoms: _124  and  _125
REMARK   48  A    between atoms: _124  and  _127
REMARK   49  A    between atoms: _127  and  _128
REMARK   50  A    between atoms: _128  and  _129
REMARK   51  A    between atoms: _132  and  _134
REMARK   52  A    between atoms: _134  and  _135
REMARK   53  A    between atoms: _134  and  _137
REMARK   54  A    between atoms: _137  and  _138
REMARK   55  A    between atoms: _138  and  _139
REMARK   56  A    between atoms: _139  and  _140
REMARK   57  A    between atoms: _140  and  _141
REMARK   58  A    between atoms: _145  and  _147
REMARK   59  A    between atoms: _147  and  _148
REMARK   60  A    between atoms: _147  and  _150
REMARK   61  A    between atoms: _150  and  _151
REMARK   62  A    between atoms: _151  and  _152
REMARK   63  A    between atoms: _152  and  _153
REMARK   64  A    between atoms: _153  and  _154
REMARK   65  A    between atoms: _158  and  _160
REMARK   66  A    between atoms: _160  and  _161
REMARK   67  A    between atoms: _160  and  _163
REMARK   68  A    between atoms: _163  and  _164
REMARK   69  A    between atoms: _175  and  _176
REMARK   70  A    between atoms: _181  and  _183
REMARK   71  A    between atoms: _183  and  _184
REMARK   72  A    between atoms: _183  and  _186
REMARK   73  A    between atoms: _186  and  _187
REMARK   74  A    between atoms: _190  and  _192
REMARK   75  A    between atoms: _192  and  _193
REMARK   76  A    between atoms: _195  and  _197
REMARK   77  A    between atoms: _197  and  _198
REMARK   78  A    between atoms: _197  and  _200
REMARK   79  A    between atoms: _203  and  _205
REMARK   80  A    between atoms: _205  and  _206
REMARK   81  A    between atoms: _205  and  _208
REMARK   82  A    between atoms: _210  and  _212
REMARK   83  A    between atoms: _212  and  _213
REMARK   84  A    between atoms: _212  and  _215
REMARK   85  A    between atoms: _215  and  _216
REMARK   86  A    between atoms: _218  and  _220
REMARK   87  A    between atoms: _220  and  _221
REMARK   88  A    between atoms: _224  and  _226
REMARK   89  A    between atoms: _226  and  _227
REMARK   90  A    between atoms: _229  and  _231
REMARK   91  A    between atoms: _231  and  _232
REMARK   92  A    between atoms: _231  and  _234
REMARK   93  A    between atoms: _234  and  _235
REMARK   94  A    between atoms: _238  and  _240
REMARK   95  A    between atoms: _240  and  _241
REMARK   96  A    between atoms: _243  and  _245
REMARK   97  A    between atoms: _245  and  _246
REMARK   98  A    between atoms: _245  and  _248
REMARK   99  A    between atoms: _248  and  _249
REMARK  100  A    between atoms: _249  and  _250
REMARK  101  A    between atoms: _250  and  _251
REMARK  102  A    between atoms: _260  and  _262
REMARK  103  A    between atoms: _262  and  _263
REMARK  104  A    between atoms: _262  and  _265
REMARK  105  A    between atoms: _265  and  _266
REMARK  106  A    between atoms: _268  and  _270
REMARK  107  A    between atoms: _270  and  _271
REMARK  108  A    between atoms: _273  and  _275
REMARK  109  A    between atoms: _275  and  _276
REMARK  110  A    between atoms: _275  and  _278
REMARK  111  A    between atoms: _278  and  _279
REMARK  112  A    between atoms: _282  and  _284
REMARK  113  A    between atoms: _284  and  _285
REMARK  114  A    between atoms: _284  and  _287
REMARK  115  A    between atoms: _287  and  _288
REMARK  116  A    between atoms: _288  and  _289
REMARK  117  A    between atoms: _289  and  _290
REMARK  118  A    between atoms: _299  and  _301
REMARK  119  A    between atoms: _301  and  _302
REMARK  120  A    between atoms: _304  and  _306
REMARK  121  A    between atoms: _306  and  _307
REMARK  122  A    between atoms: _306  and  _309
REMARK  123  A    between atoms: _309  and  _310
REMARK  124  A    between atoms: _313  and  _315
REMARK  125  A    between atoms: _315  and  _316
REMARK  126  A    between atoms: _315  and  _318
REMARK  127  A    between atoms: _318  and  _319
REMARK  128  A    between atoms: _322  and  _324
REMARK  129  A    between atoms: _324  and  _325
REMARK  130  A    between atoms: _324  and  _327
REMARK  131  A    between atoms: _327  and  _328
REMARK  132  A    between atoms: _328  and  _329
REMARK  133  A    between atoms: _334  and  _336
REMARK  134  A    between atoms: _336  and  _337
REMARK  135  A    between atoms: _336  and  _339
REMARK  136  A    between atoms: _339  and  _340
REMARK  137  A    between atoms: _343  and  _345
REMARK  138  A    between atoms: _345  and  _346
REMARK  139  A    between atoms: _345  and  _348
REMARK  140  A    between atoms: _348  and  _349
REMARK  141  A    between atoms: _349  and  _350
REMARK                            x       y       z     vdW  Elec       q    Type
REMARK                         _______ _______ _______ _____ _____    ______ ____
ROOT
ATOM      1  C   ILE A   3      53.320  12.617   7.807  0.00  0.00    +0.241 C 
ATOM      2  O   ILE A   3      53.943  11.569   7.667  0.00  0.00    -0.273 OA
ATOM      3  N   GLN A   4      52.715  13.227   6.794  0.00  0.00    -0.297 N 
ATOM      4  H   GLN A   4      52.218  14.124   6.967  0.00  0.00    +0.150 HD
ENDROOT
BRANCH   3   5
ATOM      5  CA  GLN A   4      52.729  12.671   5.443  0.00  0.00    +0.149 C 
BRANCH   5   6
ATOM      6  C   GLN A   4      53.907  13.100   4.558  0.00  0.00    +0.241 C 
ATOM      7  N   THR A   5      54.743  14.025   5.030  0.00  0.00    -0.296 N 
ATOM      8  H   THR A   5      54.573  14.439   5.969  0.00  0.00    +0.150 HD
ATOM      9  O   GLN A   4      54.049  12.595   3.446  0.00  0.00    -0.273 OA
BRANCH   7  10
ATOM     10  CA  THR A   5      55.899  14.467   4.244  0.00  0.00    +0.164 C 
BRANCH  10  11
ATOM     11  CB  THR A   5      55.580  15.706   3.386  0.00  0.00    +0.136 C 
ATOM     12  CG2 THR A   5      54.389  15.438   2.491  0.00  0.00    +0.034 C 
BRANCH  11  13
ATOM     13  OG1 THR A   5      55.303  16.827   4.236  0.00  0.00    -0.382 OA
ATOM     14  HG1 THR A   5      55.099  17.620   3.679  0.00  0.00    +0.210 HD
ENDBRANCH  11  13
ENDBRANCH  10  11
BRANCH  10  15
ATOM     15  C   THR A   5      57.110  14.809   5.101  0.00  0.00    +0.229 C 
ATOM     16  O   THR A   5      56.990  15.024   6.303  0.00  0.00    -0.286 OA
ENDBRANCH  10  15
ENDBRANCH   7  10
ENDBRANCH   5   6
BRANCH   5  17
ATOM     17  CB  GLN A   4      51.458  13.063   4.690  0.00  0.00    +0.039 C 
BRANCH  17  18
ATOM     18  CG  GLN A   4      50.450  11.936   4.545  0.00  0.00    +0.087 C 
BRANCH  18  19
ATOM     19  CD  GLN A   4      51.011  10.746   3.792  0.00  0.00    +0.219 C 
ATOM     20  NE2 GLN A   4      50.884   9.469   4.130  0.00  0.00    -0.329 N 
ATOM     21 HE21 GLN A   4      50.356   9.208   4.987  0.00  0.00    +0.145 HD
ATOM     22 HE22 GLN A   4      51.313   8.729   3.538  0.00  0.00    +0.145 HD
ATOM     23  OE1 GLN A   4      51.659  10.903   2.758  0.00  0.00    -0.275 OA
ENDBRANCH  18  19
ENDBRANCH  17  18
ENDBRANCH   5  17
ENDBRANCH   3   5
BRANCH   1  24
ATOM     24  CA  ILE A   3      53.206  13.291   9.184  0.00  0.00    +0.149 C 
BRANCH  24  26
ATOM     25  C   LEU A   2      51.998  11.412  10.155  0.00  0.00    +0.241 C 
ATOM     26  N   ILE A   3      52.056  12.713   9.883  0.00  0.00    -0.297 N 
ATOM     27  H   ILE A   3      51.271  13.331  10.172  0.00  0.00    +0.150 HD
ATOM     28  O   LEU A   2      52.914  10.633   9.869  0.00  0.00    -0.273 OA
BRANCH  25  29
ATOM     29  CA  LEU A   2      50.728  10.885  10.843  0.00  0.00    +0.149 C 
BRANCH  29  31
ATOM     30  C   GLY A   1      50.044   9.806   8.808  0.00  0.00    +0.240 C 
ATOM     31  N   LEU A   2      50.399   9.688  10.080  0.00  0.00    -0.297 N 
ATOM     32  H   LEU A   2      50.442   8.751  10.529  0.00  0.00    +0.150 HD
ATOM     33  O   GLY A   1      49.918  10.899   8.262  0.00  0.00    -0.274 OA
BRANCH  30  34
ATOM     34  CA  GLY A   1      49.754   8.550   8.018  0.00  0.00    +0.169 C 
BRANCH  34  35
ATOM     35  N   GLY A   1      49.706   7.263   8.681  0.00  0.00    -0.236 NA
ATOM     36  H   GLY A   1      50.498   6.598   8.571  0.00  0.00    +0.142 HD
ENDBRANCH  34  35
ENDBRANCH  30  34
ENDBRANCH  29  31
BRANCH  29  37
ATOM     37  CB  LEU A   2      51.017  10.518  12.295  0.00  0.00    +0.029 C 
BRANCH  37  38
ATOM     38  CG  LEU A   2      50.024   9.550  12.932  0.00  0.00    +0.002 C 
ATOM     39  CD2 LEU A   2      50.460   9.286  14.354  0.00  0.00    +0.000 C 
ATOM     40  CD1 LEU A   2      48.612  10.109  12.877  0.00  0.00    +0.000 C 
ENDBRANCH  37  38
ENDBRANCH  29  37
ENDBRANCH  25  29
ENDBRANCH  24  26
BRANCH  24  41
ATOM     41  CB  ILE A   3      54.533  13.072   9.962  0.00  0.00    +0.027 C 
ATOM     42  CG2 ILE A   3      55.680  13.774   9.244  0.00  0.00    +0.002 C 
BRANCH  41  43
ATOM     43  CG1 ILE A   3      54.406  13.604  11.391  0.00  0.00    +0.002 C 
ATOM     44  CD1 ILE A   3      54.122  15.087  11.488  0.00  0.00    +0.000 C 
ENDBRANCH  41  43
ENDBRANCH  24  41
ENDBRANCH   1  24
TORSDOF 19
REMARK  Name = ../refined-set-2016/3eb1/3eb1_pocket.pdb
REMARK  141 active torsions:
REMARK  status: ('A' for Active; 'I' for Inactive)
REMARK    1  A    between atoms: _1  and  _3
REMARK    2  A    between atoms: _3  and  _4
REMARK    3  A    between atoms: _3  and  _6
REMARK    4  A    between atoms: _6  and  _7
REMARK    5  A    between atoms: _12  and  _13
REMARK    6  A    between atoms: _15  and  _17
REMARK    7  A    between atoms: _17  and  _18
REMARK    8  A    between atoms: _17  and  _20
REMARK    9  A    between atoms: _20  and  _21
REMARK   10  A    between atoms: _21  and  _22
REMARK   11  A    between atoms: _22  and  _23
REMARK   12  A    between atoms: _32  and  _34
REMARK   13  A    between atoms: _34  and  _35
REMARK   14  A    between atoms: _34  and  _37
REMARK   15  A    between atoms: _37  and  _38
REMARK   16  A    between atoms: _38  and  _39
REMARK   17  A    between atoms: _39  and  _40
REMARK   18  A    between atoms: _49  and  _51
REMARK   19  A    between atoms: _51  and  _52
REMARK   20  A    between atoms: _51  and  _54
REMARK   21  A    between atoms: _54  and  _55
REMARK   22  A    between atoms: _60  and  _61
REMARK   23  A    between atoms: _63  and  _65
REMARK   24  A    between atoms: _65  and  _66
REMARK   25  A    between atoms: _65  and  _68
REMARK   26  A    between atoms: _68  and  _69
REMARK   27  A    between atoms: _69  and  _70
REMARK   28  A    between atoms: _70  and  _71
REMARK   29  A    between atoms: _80  and  _82
REMARK   30  A    between atoms: _82  and  _83
REMARK   31  A    between atoms: _82  and  _85
REMARK   32  A    between atoms: _85  and  _86
REMARK   33  A    between atoms: _89  and  _91
REMARK   34  A    between atoms: _91  and  _92
REMARK   35  A    between atoms: _91  and  _94
REMARK   36  A    between atoms: _97  and  _99
REMARK   37  A    between atoms: _99  and  _100
REMARK   38  A    between atoms: _102  and  _104
REMARK   39  A    between atoms: _104  and  _105
REMARK   40  A    between atoms: _104  and  _107
REMARK   41  A    between atoms: _107  and  _108
REMARK   42  A    between atoms: _111  and  _113
REMARK   43  A    between atoms: _113  and  _114
REMARK   44  A    between atoms: _113  and  _116
REMARK   45  A    between atoms: _116  and  _117
REMARK   46  A    between atoms: _122  and  _124
REMARK   47  A    between atoms: _124  and  _125
REMARK   48  A    between atoms: _124  and  _127
REMARK   49  A    between atoms: _127  and  _128
REMARK   50  A    between atoms: _128  and  _129
REMARK   51  A    between atoms: _132  and  _134
REMARK   52  A    between atoms: _134  and  _135
REMARK   53  A    between atoms: _134  and  _137
REMARK   54  A    between atoms: _137  and  _138
REMARK   55  A    between atoms: _138  and  _139
REMARK   56  A    between atoms: _139  and  _140
REMARK   57  A    between atoms: _140  and  _141
REMARK   58  A    between atoms: _145  and  _147
REMARK   59  A    between atoms: _147  and  _148
REMARK   60  A    between atoms: _147  and  _150
REMARK   61  A    between atoms: _150  and  _151
REMARK   62  A    between atoms: _151  and  _152
REMARK   63  A    between atoms: _152  and  _153
REMARK   64  A    between atoms: _153  and  _154
REMARK   65  A    between atoms: _158  and  _160
REMARK   66  A    between atoms: _160  and  _161
REMARK   67  A    between atoms: _160  and  _163
REMARK   68  A    between atoms: _163  and  _164
REMARK   69  A    between atoms: _175  and  _176
REMARK   70  A    between atoms: _181  and  _183
REMARK   71  A    between atoms: _183  and  _184
REMARK   72  A    between atoms: _183  and  _186
REMARK   73  A    between atoms: _186  and  _187
REMARK   74  A    between atoms: _190  and  _192
REMARK   75  A    between atoms: _192  and  _193
REMARK   76  A    between atoms: _195  and  _197
REMARK   77  A    between atoms: _197  and  _198
REMARK   78  A    between atoms: _197  and  _200
REMARK   79  A    between atoms: _203  and  _205
REMARK   80  A    between atoms: _205  and  _206
REMARK   81  A    between atoms: _205  and  _208
REMARK   82  A    between atoms: _210  and  _212
REMARK   83  A    between atoms: _212  and  _213
REMARK   84  A    between atoms: _212  and  _215
REMARK   85  A    between atoms: _215  and  _216
REMARK   86  A    between atoms: _218  and  _220
REMARK   87  A    between atoms: _220  and  _221
REMARK   88  A    between atoms: _224  and  _226
REMARK   89  A    between atoms: _226  and  _227
REMARK   90  A    between atoms: _229  and  _231
REMARK   91  A    between atoms: _231  and  _232
REMARK   92  A    between atoms: _231  and  _234
REMARK   93  A    between atoms: _234  and  _235
REMARK   94  A    between atoms: _238  and  _240
REMARK   95  A    between atoms: _240  and  _241
REMARK   96  A    between atoms: _243  and  _245
REMARK   97  A    between atoms: _245  and  _246
REMARK   98  A    between atoms: _245  and  _248
REMARK   99  A    between atoms: _248  and  _249
REMARK  100  A    between atoms: _249  and  _250
REMARK  101  A    between atoms: _250  and  _251
REMARK  102  A    between atoms: _260  and  _262
REMARK  103  A    between atoms: _262  and  _263
REMARK  104  A    between atoms: _262  and  _265
REMARK  105  A    between atoms: _265  and  _266
REMARK  106  A    between atoms: _268  and  _270
REMARK  107  A    between atoms: _270  and  _271
REMARK  108  A    between atoms: _273  and  _275
REMARK  109  A    between atoms: _275  and  _276
REMARK  110  A    between atoms: _275  and  _278
REMARK  111  A    between atoms: _278  and  _279
REMARK  112  A    between atoms: _282  and  _284
REMARK  113  A    between atoms: _284  and  _285
REMARK  114  A    between atoms: _284  and  _287
REMARK  115  A    between atoms: _287  and  _288
REMARK  116  A    between atoms: _288  and  _289
REMARK  117  A    between atoms: _289  and  _290
REMARK  118  A    between atoms: _299  and  _301
REMARK  119  A    between atoms: _301  and  _302
REMARK  120  A    between atoms: _304  and  _306
REMARK  121  A    between atoms: _306  and  _307
REMARK  122  A    between atoms: _306  and  _309
REMARK  123  A    between atoms: _309  and  _310
REMARK  124  A    between atoms: _313  and  _315
REMARK  125  A    between atoms: _315  and  _316
REMARK  126  A    between atoms: _315  and  _318
REMARK  127  A    between atoms: _318  and  _319
REMARK  128  A    between atoms: _322  and  _324
REMARK  129  A    between atoms: _324  and  _325
REMARK  130  A    between atoms: _324  and  _327
REMARK  131  A    between atoms: _327  and  _328
REMARK  132  A    between atoms: _328  and  _329
REMARK  133  A    between atoms: _334  and  _336
REMARK  134  A    between atoms: _336  and  _337
REMARK  135  A    between atoms: _336  and  _339
REMARK  136  A    between atoms: _339  and  _340
REMARK  137  A    between atoms: _343  and  _345
REMARK  138  A    between atoms: _345  and  _346
REMARK  139  A    between atoms: _345  and  _348
REMARK  140  A    between atoms: _348  and  _349
REMARK  141  A    between atoms: _349  and  _350
REMARK                            x       y       z     vdW  Elec       q    Type
REMARK                         _______ _______ _______ _____ _____    ______ ____
ROOT
ATOM      1  CB  GLN A   1      55.018  17.152   7.507  0.00  0.00    +0.035 C 
ENDROOT
BRANCH   1   2
ATOM      2  CA  GLN A   1      56.159  18.142   7.742  0.00  0.00    +0.134 C 
BRANCH   2   3
ATOM      3  N   GLN A   1      57.028  18.180   6.580  0.00  0.00    -0.239 NA
ATOM      4  H   GLN A   1      56.828  17.556   5.772  0.00  0.00    +0.142 HD
ENDBRANCH   2   3
BRANCH   2   5
ATOM      5  C   GLN A   1      56.987  17.727   8.953  0.00  0.00    +0.224 C 
ATOM      6  O   GLN A   1      56.906  18.339  10.017  0.00  0.00    -0.287 OA
ENDBRANCH   2   5
ENDBRANCH   1   2
BRANCH   1   7
ATOM      7  CG  GLN A   1      53.638  17.752   7.704  0.00  0.00    +0.087 C 
BRANCH   7   8
ATOM      8  CD  GLN A   1      52.546  16.948   7.016  0.00  0.00    +0.219 C 
ATOM      9  OE1 GLN A   1      52.317  15.778   7.336  0.00  0.00    -0.275 OA
ATOM     10  NE2 GLN A   1      51.867  17.576   6.061  0.00  0.00    -0.329 N 
ATOM     11 HE21 GLN A   1      52.094  18.563   5.824  0.00  0.00    +0.145 HD
ATOM     12 HE22 GLN A   1      51.109  17.080   5.550  0.00  0.00    +0.145 HD
ENDBRANCH   7   8
ENDBRANCH   1   7
TORSDOF 5
REMARK  Name = ../refined-set-2016/3eb1/3eb1_pocket.pdb
REMARK  141 active torsions:
REMARK  status: ('A' for Active; 'I' for Inactive)
REMARK    1  A    between atoms: _1  and  _3
REMARK    2  A    between atoms: _3  and  _4
REMARK    3  A    between atoms: _3  and  _6
REMARK    4  A    between atoms: _6  and  _7
REMARK    5  A    between atoms: _12  and  _13
REMARK    6  A    between atoms: _15  and  _17
REMARK    7  A    between atoms: _17  and  _18
REMARK    8  A    between atoms: _17  and  _20
REMARK    9  A    between atoms: _20  and  _21
REMARK   10  A    between atoms: _21  and  _22
REMARK   11  A    between atoms: _22  and  _23
REMARK   12  A    between atoms: _32  and  _34
REMARK   13  A    between atoms: _34  and  _35
REMARK   14  A    between atoms: _34  and  _37
REMARK   15  A    between atoms: _37  and  _38
REMARK   16  A    between atoms: _38  and  _39
REMARK   17  A    between atoms: _39  and  _40
REMARK   18  A    between atoms: _49  and  _51
REMARK   19  A    between atoms: _51  and  _52
REMARK   20  A    between atoms: _51  and  _54
REMARK   21  A    between atoms: _54  and  _55
REMARK   22  A    between atoms: _60  and  _61
REMARK   23  A    between atoms: _63  and  _65
REMARK   24  A    between atoms: _65  and  _66
REMARK   25  A    between atoms: _65  and  _68
REMARK   26  A    between atoms: _68  and  _69
REMARK   27  A    between atoms: _69  and  _70
REMARK   28  A    between atoms: _70  and  _71
REMARK   29  A    between atoms: _80  and  _82
REMARK   30  A    between atoms: _82  and  _83
REMARK   31  A    between atoms: _82  and  _85
REMARK   32  A    between atoms: _85  and  _86
REMARK   33  A    between atoms: _89  and  _91
REMARK   34  A    between atoms: _91  and  _92
REMARK   35  A    between atoms: _91  and  _94
REMARK   36  A    between atoms: _97  and  _99
REMARK   37  A    between atoms: _99  and  _100
REMARK   38  A    between atoms: _102  and  _104
REMARK   39  A    between atoms: _104  and  _105
REMARK   40  A    between atoms: _104  and  _107
REMARK   41  A    between atoms: _107  and  _108
REMARK   42  A    between atoms: _111  and  _113
REMARK   43  A    between atoms: _113  and  _114
REMARK   44  A    between atoms: _113  and  _116
REMARK   45  A    between atoms: _116  and  _117
REMARK   46  A    between atoms: _122  and  _124
REMARK   47  A    between atoms: _124  and  _125
REMARK   48  A    between atoms: _124  and  _127
REMARK   49  A    between atoms: _127  and  _128
REMARK   50  A    between atoms: _128  and  _129
REMARK   51  A    between atoms: _132  and  _134
REMARK   52  A    between atoms: _134  and  _135
REMARK   53  A    between atoms: _134  and  _137
REMARK   54  A    between atoms: _137  and  _138
REMARK   55  A    between atoms: _138  and  _139
REMARK   56  A    between atoms: _139  and  _140
REMARK   57  A    between atoms: _140  and  _141
REMARK   58  A    between atoms: _145  and  _147
REMARK   59  A    between atoms: _147  and  _148
REMARK   60  A    between atoms: _147  and  _150
REMARK   61  A    between atoms: _150  and  _151
REMARK   62  A    between atoms: _151  and  _152
REMARK   63  A    between atoms: _152  and  _153
REMARK   64  A    between atoms: _153  and  _154
REMARK   65  A    between atoms: _158  and  _160
REMARK   66  A    between atoms: _160  and  _161
REMARK   67  A    between atoms: _160  and  _163
REMARK   68  A    between atoms: _163  and  _164
REMARK   69  A    between atoms: _175  and  _176
REMARK   70  A    between atoms: _181  and  _183
REMARK   71  A    between atoms: _183  and  _184
REMARK   72  A    between atoms: _183  and  _186
REMARK   73  A    between atoms: _186  and  _187
REMARK   74  A    between atoms: _190  and  _192
REMARK   75  A    between atoms: _192  and  _193
REMARK   76  A    between atoms: _195  and  _197
REMARK   77  A    between atoms: _197  and  _198
REMARK   78  A    between atoms: _197  and  _200
REMARK   79  A    between atoms: _203  and  _205
REMARK   80  A    between atoms: _205  and  _206
REMARK   81  A    between atoms: _205  and  _208
REMARK   82  A    between atoms: _210  and  _212
REMARK   83  A    between atoms: _212  and  _213
REMARK   84  A    between atoms: _212  and  _215
REMARK   85  A    between atoms: _215  and  _216
REMARK   86  A    between atoms: _218  and  _220
REMARK   87  A    between atoms: _220  and  _221
REMARK   88  A    between atoms: _224  and  _226
REMARK   89  A    between atoms: _226  and  _227
REMARK   90  A    between atoms: _229  and  _231
REMARK   91  A    between atoms: _231  and  _232
REMARK   92  A    between atoms: _231  and  _234
REMARK   93  A    between atoms: _234  and  _235
REMARK   94  A    between atoms: _238  and  _240
REMARK   95  A    between atoms: _240  and  _241
REMARK   96  A    between atoms: _243  and  _245
REMARK   97  A    between atoms: _245  and  _246
REMARK   98  A    between atoms: _245  and  _248
REMARK   99  A    between atoms: _248  and  _249
REMARK  100  A    between atoms: _249  and  _250
REMARK  101  A    between atoms: _250  and  _251
REMARK  102  A    between atoms: _260  and  _262
REMARK  103  A    between atoms: _262  and  _263
REMARK  104  A    between atoms: _262  and  _265
REMARK  105  A    between atoms: _265  and  _266
REMARK  106  A    between atoms: _268  and  _270
REMARK  107  A    between atoms: _270  and  _271
REMARK  108  A    between atoms: _273  and  _275
REMARK  109  A    between atoms: _275  and  _276
REMARK  110  A    between atoms: _275  and  _278
REMARK  111  A    between atoms: _278  and  _279
REMARK  112  A    between atoms: _282  and  _284
REMARK  113  A    between atoms: _284  and  _285
REMARK  114  A    between atoms: _284  and  _287
REMARK  115  A    between atoms: _287  and  _288
REMARK  116  A    between atoms: _288  and  _289
REMARK  117  A    between atoms: _289  and  _290
REMARK  118  A    between atoms: _299  and  _301
REMARK  119  A    between atoms: _301  and  _302
REMARK  120  A    between atoms: _304  and  _306
REMARK  121  A    between atoms: _306  and  _307
REMARK  122  A    between atoms: _306  and  _309
REMARK  123  A    between atoms: _309  and  _310
REMARK  124  A    between atoms: _313  and  _315
REMARK  125  A    between atoms: _315  and  _316
REMARK  126  A    between atoms: _315  and  _318
REMARK  127  A    between atoms: _318  and  _319
REMARK  128  A    between atoms: _322  and  _324
REMARK  129  A    between atoms: _324  and  _325
REMARK  130  A    between atoms: _324  and  _327
REMARK  131  A    between atoms: _327  and  _328
REMARK  132  A    between atoms: _328  and  _329
REMARK  133  A    between atoms: _334  and  _336
REMARK  134  A    between atoms: _336  and  _337
REMARK  135  A    between atoms: _336  and  _339
REMARK  136  A    between atoms: _339  and  _340
REMARK  137  A    between atoms: _343  and  _345
REMARK  138  A    between atoms: _345  and  _346
REMARK  139  A    between atoms: _345  and  _348
REMARK  140  A    between atoms: _348  and  _349
REMARK  141  A    between atoms: _349  and  _350
REMARK                            x       y       z     vdW  Elec       q    Type
REMARK                         _______ _______ _______ _____ _____    ______ ____
ROOT
ATOM      1  O   HOH     1      40.192  16.362   2.955  0.00  0.00    +0.000 OA
ENDROOT
TORSDOF 0
REMARK  Name = ../refined-set-2016/3eb1/3eb1_pocket.pdb
REMARK  141 active torsions:
REMARK  status: ('A' for Active; 'I' for Inactive)
REMARK    1  A    between atoms: _1  and  _3
REMARK    2  A    between atoms: _3  and  _4
REMARK    3  A    between atoms: _3  and  _6
REMARK    4  A    between atoms: _6  and  _7
REMARK    5  A    between atoms: _12  and  _13
REMARK    6  A    between atoms: _15  and  _17
REMARK    7  A    between atoms: _17  and  _18
REMARK    8  A    between atoms: _17  and  _20
REMARK    9  A    between atoms: _20  and  _21
REMARK   10  A    between atoms: _21  and  _22
REMARK   11  A    between atoms: _22  and  _23
REMARK   12  A    between atoms: _32  and  _34
REMARK   13  A    between atoms: _34  and  _35
REMARK   14  A    between atoms: _34  and  _37
REMARK   15  A    between atoms: _37  and  _38
REMARK   16  A    between atoms: _38  and  _39
REMARK   17  A    between atoms: _39  and  _40
REMARK   18  A    between atoms: _49  and  _51
REMARK   19  A    between atoms: _51  and  _52
REMARK   20  A    between atoms: _51  and  _54
REMARK   21  A    between atoms: _54  and  _55
REMARK   22  A    between atoms: _60  and  _61
REMARK   23  A    between atoms: _63  and  _65
REMARK   24  A    between atoms: _65  and  _66
REMARK   25  A    between atoms: _65  and  _68
REMARK   26  A    between atoms: _68  and  _69
REMARK   27  A    between atoms: _69  and  _70
REMARK   28  A    between atoms: _70  and  _71
REMARK   29  A    between atoms: _80  and  _82
REMARK   30  A    between atoms: _82  and  _83
REMARK   31  A    between atoms: _82  and  _85
REMARK   32  A    between atoms: _85  and  _86
REMARK   33  A    between atoms: _89  and  _91
REMARK   34  A    between atoms: _91  and  _92
REMARK   35  A    between atoms: _91  and  _94
REMARK   36  A    between atoms: _97  and  _99
REMARK   37  A    between atoms: _99  and  _100
REMARK   38  A    between atoms: _102  and  _104
REMARK   39  A    between atoms: _104  and  _105
REMARK   40  A    between atoms: _104  and  _107
REMARK   41  A    between atoms: _107  and  _108
REMARK   42  A    between atoms: _111  and  _113
REMARK   43  A    between atoms: _113  and  _114
REMARK   44  A    between atoms: _113  and  _116
REMARK   45  A    between atoms: _116  and  _117
REMARK   46  A    between atoms: _122  and  _124
REMARK   47  A    between atoms: _124  and  _125
REMARK   48  A    between atoms: _124  and  _127
REMARK   49  A    between atoms: _127  and  _128
REMARK   50  A    between atoms: _128  and  _129
REMARK   51  A    between atoms: _132  and  _134
REMARK   52  A    between atoms: _134  and  _135
REMARK   53  A    between atoms: _134  and  _137
REMARK   54  A    between atoms: _137  and  _138
REMARK   55  A    between atoms: _138  and  _139
REMARK   56  A    between atoms: _139  and  _140
REMARK   57  A    between atoms: _140  and  _141
REMARK   58  A    between atoms: _145  and  _147
REMARK   59  A    between atoms: _147  and  _148
REMARK   60  A    between atoms: _147  and  _150
REMARK   61  A    between atoms: _150  and  _151
REMARK   62  A    between atoms: _151  and  _152
REMARK   63  A    between atoms: _152  and  _153
REMARK   64  A    between atoms: _153  and  _154
REMARK   65  A    between atoms: _158  and  _160
REMARK   66  A    between atoms: _160  and  _161
REMARK   67  A    between atoms: _160  and  _163
REMARK   68  A    between atoms: _163  and  _164
REMARK   69  A    between atoms: _175  and  _176
REMARK   70  A    between atoms: _181  and  _183
REMARK   71  A    between atoms: _183  and  _184
REMARK   72  A    between atoms: _183  and  _186
REMARK   73  A    between atoms: _186  and  _187
REMARK   74  A    between atoms: _190  and  _192
REMARK   75  A    between atoms: _192  and  _193
REMARK   76  A    between atoms: _195  and  _197
REMARK   77  A    between atoms: _197  and  _198
REMARK   78  A    between atoms: _197  and  _200
REMARK   79  A    between atoms: _203  and  _205
REMARK   80  A    between atoms: _205  and  _206
REMARK   81  A    between atoms: _205  and  _208
REMARK   82  A    between atoms: _210  and  _212
REMARK   83  A    between atoms: _212  and  _213
REMARK   84  A    between atoms: _212  and  _215
REMARK   85  A    between atoms: _215  and  _216
REMARK   86  A    between atoms: _218  and  _220
REMARK   87  A    between atoms: _220  and  _221
REMARK   88  A    between atoms: _224  and  _226
REMARK   89  A    between atoms: _226  and  _227
REMARK   90  A    between atoms: _229  and  _231
REMARK   91  A    between atoms: _231  and  _232
REMARK   92  A    between atoms: _231  and  _234
REMARK   93  A    between atoms: _234  and  _235
REMARK   94  A    between atoms: _238  and  _240
REMARK   95  A    between atoms: _240  and  _241
REMARK   96  A    between atoms: _243  and  _245
REMARK   97  A    between atoms: _245  and  _246
REMARK   98  A    between atoms: _245  and  _248
REMARK   99  A    between atoms: _248  and  _249
REMARK  100  A    between atoms: _249  and  _250
REMARK  101  A    between atoms: _250  and  _251
REMARK  102  A    between atoms: _260  and  _262
REMARK  103  A    between atoms: _262  and  _263
REMARK  104  A    between atoms: _262  and  _265
REMARK  105  A    between atoms: _265  and  _266
REMARK  106  A    between atoms: _268  and  _270
REMARK  107  A    between atoms: _270  and  _271
REMARK  108  A    between atoms: _273  and  _275
REMARK  109  A    between atoms: _275  and  _276
REMARK  110  A    between atoms: _275  and  _278
REMARK  111  A    between atoms: _278  and  _279
REMARK  112  A    between atoms: _282  and  _284
REMARK  113  A    between atoms: _284  and  _285
REMARK  114  A    between atoms: _284  and  _287
REMARK  115  A    between atoms: _287  and  _288
REMARK  116  A    between atoms: _288  and  _289
REMARK  117  A    between atoms: _289  and  _290
REMARK  118  A    between atoms: _299  and  _301
REMARK  119  A    between atoms: _301  and  _302
REMARK  120  A    between atoms: _304  and  _306
REMARK  121  A    between atoms: _306  and  _307
REMARK  122  A    between atoms: _306  and  _309
REMARK  123  A    between atoms: _309  and  _310
REMARK  124  A    between atoms: _313  and  _315
REMARK  125  A    between atoms: _315  and  _316
REMARK  126  A    between atoms: _315  and  _318
REMARK  127  A    between atoms: _318  and  _319
REMARK  128  A    between atoms: _322  and  _324
REMARK  129  A    between atoms: _324  and  _325
REMARK  130  A    between atoms: _324  and  _327
REMARK  131  A    between atoms: _327  and  _328
REMARK  132  A    between atoms: _328  and  _329
REMARK  133  A    between atoms: _334  and  _336
REMARK  134  A    between atoms: _336  and  _337
REMARK  135  A    between atoms: _336  and  _339
REMARK  136  A    between atoms: _339  and  _340
REMARK  137  A    between atoms: _343  and  _345
REMARK  138  A    between atoms: _345  and  _346
REMARK  139  A    between atoms: _345  and  _348
REMARK  140  A    between atoms: _348  and  _349
REMARK  141  A    between atoms: _349  and  _350
REMARK                            x       y       z     vdW  Elec       q    Type
REMARK                         _______ _______ _______ _____ _____    ______ ____
ROOT
ATOM      1  O   HOH     1      39.391   7.004   4.280  0.00  0.00    +0.000 OA
ENDROOT
TORSDOF 0
REMARK  Name = ../refined-set-2016/3eb1/3eb1_pocket.pdb
REMARK  141 active torsions:
REMARK  status: ('A' for Active; 'I' for Inactive)
REMARK    1  A    between atoms: _1  and  _3
REMARK    2  A    between atoms: _3  and  _4
REMARK    3  A    between atoms: _3  and  _6
REMARK    4  A    between atoms: _6  and  _7
REMARK    5  A    between atoms: _12  and  _13
REMARK    6  A    between atoms: _15  and  _17
REMARK    7  A    between atoms: _17  and  _18
REMARK    8  A    between atoms: _17  and  _20
REMARK    9  A    between atoms: _20  and  _21
REMARK   10  A    between atoms: _21  and  _22
REMARK   11  A    between atoms: _22  and  _23
REMARK   12  A    between atoms: _32  and  _34
REMARK   13  A    between atoms: _34  and  _35
REMARK   14  A    between atoms: _34  and  _37
REMARK   15  A    between atoms: _37  and  _38
REMARK   16  A    between atoms: _38  and  _39
REMARK   17  A    between atoms: _39  and  _40
REMARK   18  A    between atoms: _49  and  _51
REMARK   19  A    between atoms: _51  and  _52
REMARK   20  A    between atoms: _51  and  _54
REMARK   21  A    between atoms: _54  and  _55
REMARK   22  A    between atoms: _60  and  _61
REMARK   23  A    between atoms: _63  and  _65
REMARK   24  A    between atoms: _65  and  _66
REMARK   25  A    between atoms: _65  and  _68
REMARK   26  A    between atoms: _68  and  _69
REMARK   27  A    between atoms: _69  and  _70
REMARK   28  A    between atoms: _70  and  _71
REMARK   29  A    between atoms: _80  and  _82
REMARK   30  A    between atoms: _82  and  _83
REMARK   31  A    between atoms: _82  and  _85
REMARK   32  A    between atoms: _85  and  _86
REMARK   33  A    between atoms: _89  and  _91
REMARK   34  A    between atoms: _91  and  _92
REMARK   35  A    between atoms: _91  and  _94
REMARK   36  A    between atoms: _97  and  _99
REMARK   37  A    between atoms: _99  and  _100
REMARK   38  A    between atoms: _102  and  _104
REMARK   39  A    between atoms: _104  and  _105
REMARK   40  A    between atoms: _104  and  _107
REMARK   41  A    between atoms: _107  and  _108
REMARK   42  A    between atoms: _111  and  _113
REMARK   43  A    between atoms: _113  and  _114
REMARK   44  A    between atoms: _113  and  _116
REMARK   45  A    between atoms: _116  and  _117
REMARK   46  A    between atoms: _122  and  _124
REMARK   47  A    between atoms: _124  and  _125
REMARK   48  A    between atoms: _124  and  _127
REMARK   49  A    between atoms: _127  and  _128
REMARK   50  A    between atoms: _128  and  _129
REMARK   51  A    between atoms: _132  and  _134
REMARK   52  A    between atoms: _134  and  _135
REMARK   53  A    between atoms: _134  and  _137
REMARK   54  A    between atoms: _137  and  _138
REMARK   55  A    between atoms: _138  and  _139
REMARK   56  A    between atoms: _139  and  _140
REMARK   57  A    between atoms: _140  and  _141
REMARK   58  A    between atoms: _145  and  _147
REMARK   59  A    between atoms: _147  and  _148
REMARK   60  A    between atoms: _147  and  _150
REMARK   61  A    between atoms: _150  and  _151
REMARK   62  A    between atoms: _151  and  _152
REMARK   63  A    between atoms: _152  and  _153
REMARK   64  A    between atoms: _153  and  _154
REMARK   65  A    between atoms: _158  and  _160
REMARK   66  A    between atoms: _160  and  _161
REMARK   67  A    between atoms: _160  and  _163
REMARK   68  A    between atoms: _163  and  _164
REMARK   69  A    between atoms: _175  and  _176
REMARK   70  A    between atoms: _181  and  _183
REMARK   71  A    between atoms: _183  and  _184
REMARK   72  A    between atoms: _183  and  _186
REMARK   73  A    between atoms: _186  and  _187
REMARK   74  A    between atoms: _190  and  _192
REMARK   75  A    between atoms: _192  and  _193
REMARK   76  A    between atoms: _195  and  _197
REMARK   77  A    between atoms: _197  and  _198
REMARK   78  A    between atoms: _197  and  _200
REMARK   79  A    between atoms: _203  and  _205
REMARK   80  A    between atoms: _205  and  _206
REMARK   81  A    between atoms: _205  and  _208
REMARK   82  A    between atoms: _210  and  _212
REMARK   83  A    between atoms: _212  and  _213
REMARK   84  A    between atoms: _212  and  _215
REMARK   85  A    between atoms: _215  and  _216
REMARK   86  A    between atoms: _218  and  _220
REMARK   87  A    between atoms: _220  and  _221
REMARK   88  A    between atoms: _224  and  _226
REMARK   89  A    between atoms: _226  and  _227
REMARK   90  A    between atoms: _229  and  _231
REMARK   91  A    between atoms: _231  and  _232
REMARK   92  A    between atoms: _231  and  _234
REMARK   93  A    between atoms: _234  and  _235
REMARK   94  A    between atoms: _238  and  _240
REMARK   95  A    between atoms: _240  and  _241
REMARK   96  A    between atoms: _243  and  _245
REMARK   97  A    between atoms: _245  and  _246
REMARK   98  A    between atoms: _245  and  _248
REMARK   99  A    between atoms: _248  and  _249
REMARK  100  A    between atoms: _249  and  _250
REMARK  101  A    between atoms: _250  and  _251
REMARK  102  A    between atoms: _260  and  _262
REMARK  103  A    between atoms: _262  and  _263
REMARK  104  A    between atoms: _262  and  _265
REMARK  105  A    between atoms: _265  and  _266
REMARK  106  A    between atoms: _268  and  _270
REMARK  107  A    between atoms: _270  and  _271
REMARK  108  A    between atoms: _273  and  _275
REMARK  109  A    between atoms: _275  and  _276
REMARK  110  A    between atoms: _275  and  _278
REMARK  111  A    between atoms: _278  and  _279
REMARK  112  A    between atoms: _282  and  _284
REMARK  113  A    between atoms: _284  and  _285
REMARK  114  A    between atoms: _284  and  _287
REMARK  115  A    between atoms: _287  and  _288
REMARK  116  A    between atoms: _288  and  _289
REMARK  117  A    between atoms: _289  and  _290
REMARK  118  A    between atoms: _299  and  _301
REMARK  119  A    between atoms: _301  and  _302
REMARK  120  A    between atoms: _304  and  _306
REMARK  121  A    between atoms: _306  and  _307
REMARK  122  A    between atoms: _306  and  _309
REMARK  123  A    between atoms: _309  and  _310
REMARK  124  A    between atoms: _313  and  _315
REMARK  125  A    between atoms: _315  and  _316
REMARK  126  A    between atoms: _315  and  _318
REMARK  127  A    between atoms: _318  and  _319
REMARK  128  A    between atoms: _322  and  _324
REMARK  129  A    between atoms: _324  and  _325
REMARK  130  A    between atoms: _324  and  _327
REMARK  131  A    between atoms: _327  and  _328
REMARK  132  A    between atoms: _328  and  _329
REMARK  133  A    between atoms: _334  and  _336
REMARK  134  A    between atoms: _336  and  _337
REMARK  135  A    between atoms: _336  and  _339
REMARK  136  A    between atoms: _339  and  _340
REMARK  137  A    between atoms: _343  and  _345
REMARK  138  A    between atoms: _345  and  _346
REMARK  139  A    between atoms: _345  and  _348
REMARK  140  A    between atoms: _348  and  _349
REMARK  141  A    between atoms: _349  and  _350
REMARK                            x       y       z     vdW  Elec       q    Type
REMARK                         _______ _______ _______ _____ _____    ______ ____
ROOT
ATOM      1  O   HOH     1      49.944  21.999   2.767  0.00  0.00    +0.000 OA
ENDROOT
TORSDOF 0
REMARK  Name = ../refined-set-2016/3eb1/3eb1_pocket.pdb
REMARK  141 active torsions:
REMARK  status: ('A' for Active; 'I' for Inactive)
REMARK    1  A    between atoms: _1  and  _3
REMARK    2  A    between atoms: _3  and  _4
REMARK    3  A    between atoms: _3  and  _6
REMARK    4  A    between atoms: _6  and  _7
REMARK    5  A    between atoms: _12  and  _13
REMARK    6  A    between atoms: _15  and  _17
REMARK    7  A    between atoms: _17  and  _18
REMARK    8  A    between atoms: _17  and  _20
REMARK    9  A    between atoms: _20  and  _21
REMARK   10  A    between atoms: _21  and  _22
REMARK   11  A    between atoms: _22  and  _23
REMARK   12  A    between atoms: _32  and  _34
REMARK   13  A    between atoms: _34  and  _35
REMARK   14  A    between atoms: _34  and  _37
REMARK   15  A    between atoms: _37  and  _38
REMARK   16  A    between atoms: _38  and  _39
REMARK   17  A    between atoms: _39  and  _40
REMARK   18  A    between atoms: _49  and  _51
REMARK   19  A    between atoms: _51  and  _52
REMARK   20  A    between atoms: _51  and  _54
REMARK   21  A    between atoms: _54  and  _55
REMARK   22  A    between atoms: _60  and  _61
REMARK   23  A    between atoms: _63  and  _65
REMARK   24  A    between atoms: _65  and  _66
REMARK   25  A    between atoms: _65  and  _68
REMARK   26  A    between atoms: _68  and  _69
REMARK   27  A    between atoms: _69  and  _70
REMARK   28  A    between atoms: _70  and  _71
REMARK   29  A    between atoms: _80  and  _82
REMARK   30  A    between atoms: _82  and  _83
REMARK   31  A    between atoms: _82  and  _85
REMARK   32  A    between atoms: _85  and  _86
REMARK   33  A    between atoms: _89  and  _91
REMARK   34  A    between atoms: _91  and  _92
REMARK   35  A    between atoms: _91  and  _94
REMARK   36  A    between atoms: _97  and  _99
REMARK   37  A    between atoms: _99  and  _100
REMARK   38  A    between atoms: _102  and  _104
REMARK   39  A    between atoms: _104  and  _105
REMARK   40  A    between atoms: _104  and  _107
REMARK   41  A    between atoms: _107  and  _108
REMARK   42  A    between atoms: _111  and  _113
REMARK   43  A    between atoms: _113  and  _114
REMARK   44  A    between atoms: _113  and  _116
REMARK   45  A    between atoms: _116  and  _117
REMARK   46  A    between atoms: _122  and  _124
REMARK   47  A    between atoms: _124  and  _125
REMARK   48  A    between atoms: _124  and  _127
REMARK   49  A    between atoms: _127  and  _128
REMARK   50  A    between atoms: _128  and  _129
REMARK   51  A    between atoms: _132  and  _134
REMARK   52  A    between atoms: _134  and  _135
REMARK   53  A    between atoms: _134  and  _137
REMARK   54  A    between atoms: _137  and  _138
REMARK   55  A    between atoms: _138  and  _139
REMARK   56  A    between atoms: _139  and  _140
REMARK   57  A    between atoms: _140  and  _141
REMARK   58  A    between atoms: _145  and  _147
REMARK   59  A    between atoms: _147  and  _148
REMARK   60  A    between atoms: _147  and  _150
REMARK   61  A    between atoms: _150  and  _151
REMARK   62  A    between atoms: _151  and  _152
REMARK   63  A    between atoms: _152  and  _153
REMARK   64  A    between atoms: _153  and  _154
REMARK   65  A    between atoms: _158  and  _160
REMARK   66  A    between atoms: _160  and  _161
REMARK   67  A    between atoms: _160  and  _163
REMARK   68  A    between atoms: _163  and  _164
REMARK   69  A    between atoms: _175  and  _176
REMARK   70  A    between atoms: _181  and  _183
REMARK   71  A    between atoms: _183  and  _184
REMARK   72  A    between atoms: _183  and  _186
REMARK   73  A    between atoms: _186  and  _187
REMARK   74  A    between atoms: _190  and  _192
REMARK   75  A    between atoms: _192  and  _193
REMARK   76  A    between atoms: _195  and  _197
REMARK   77  A    between atoms: _197  and  _198
REMARK   78  A    between atoms: _197  and  _200
REMARK   79  A    between atoms: _203  and  _205
REMARK   80  A    between atoms: _205  and  _206
REMARK   81  A    between atoms: _205  and  _208
REMARK   82  A    between atoms: _210  and  _212
REMARK   83  A    between atoms: _212  and  _213
REMARK   84  A    between atoms: _212  and  _215
REMARK   85  A    between atoms: _215  and  _216
REMARK   86  A    between atoms: _218  and  _220
REMARK   87  A    between atoms: _220  and  _221
REMARK   88  A    between atoms: _224  and  _226
REMARK   89  A    between atoms: _226  and  _227
REMARK   90  A    between atoms: _229  and  _231
REMARK   91  A    between atoms: _231  and  _232
REMARK   92  A    between atoms: _231  and  _234
REMARK   93  A    between atoms: _234  and  _235
REMARK   94  A    between atoms: _238  and  _240
REMARK   95  A    between atoms: _240  and  _241
REMARK   96  A    between atoms: _243  and  _245
REMARK   97  A    between atoms: _245  and  _246
REMARK   98  A    between atoms: _245  and  _248
REMARK   99  A    between atoms: _248  and  _249
REMARK  100  A    between atoms: _249  and  _250
REMARK  101  A    between atoms: _250  and  _251
REMARK  102  A    between atoms: _260  and  _262
REMARK  103  A    between atoms: _262  and  _263
REMARK  104  A    between atoms: _262  and  _265
REMARK  105  A    between atoms: _265  and  _266
REMARK  106  A    between atoms: _268  and  _270
REMARK  107  A    between atoms: _270  and  _271
REMARK  108  A    between atoms: _273  and  _275
REMARK  109  A    between atoms: _275  and  _276
REMARK  110  A    between atoms: _275  and  _278
REMARK  111  A    between atoms: _278  and  _279
REMARK  112  A    between atoms: _282  and  _284
REMARK  113  A    between atoms: _284  and  _285
REMARK  114  A    between atoms: _284  and  _287
REMARK  115  A    between atoms: _287  and  _288
REMARK  116  A    between atoms: _288  and  _289
REMARK  117  A    between atoms: _289  and  _290
REMARK  118  A    between atoms: _299  and  _301
REMARK  119  A    between atoms: _301  and  _302
REMARK  120  A    between atoms: _304  and  _306
REMARK  121  A    between atoms: _306  and  _307
REMARK  122  A    between atoms: _306  and  _309
REMARK  123  A    between atoms: _309  and  _310
REMARK  124  A    between atoms: _313  and  _315
REMARK  125  A    between atoms: _315  and  _316
REMARK  126  A    between atoms: _315  and  _318
REMARK  127  A    between atoms: _318  and  _319
REMARK  128  A    between atoms: _322  and  _324
REMARK  129  A    between atoms: _324  and  _325
REMARK  130  A    between atoms: _324  and  _327
REMARK  131  A    between atoms: _327  and  _328
REMARK  132  A    between atoms: _328  and  _329
REMARK  133  A    between atoms: _334  and  _336
REMARK  134  A    between atoms: _336  and  _337
REMARK  135  A    between atoms: _336  and  _339
REMARK  136  A    between atoms: _339  and  _340
REMARK  137  A    between atoms: _343  and  _345
REMARK  138  A    between atoms: _345  and  _346
REMARK  139  A    between atoms: _345  and  _348
REMARK  140  A    between atoms: _348  and  _349
REMARK  141  A    between atoms: _349  and  _350
REMARK                            x       y       z     vdW  Elec       q    Type
REMARK                         _______ _______ _______ _____ _____    ______ ____
ROOT
ATOM      1  O   HOH     1      45.987  22.099   0.720  0.00  0.00    +0.000 OA
ENDROOT
TORSDOF 0
