REMARK  Name = ../refined-set-2016/2web/2web_pocket.pdb
REMARK  255 active torsions:
REMARK  status: ('A' for Active; 'I' for Inactive)
REMARK    1  A    between atoms: _1  and  _3
REMARK    2  A    between atoms: _3  and  _4
REMARK    3  A    between atoms: _3  and  _6
REMARK    4  A    between atoms: _6  and  _7
REMARK    5  A    between atoms: _10  and  _12
REMARK    6  A    between atoms: _12  and  _13
REMARK    7  A    between atoms: _12  and  _15
REMARK    8  A    between atoms: _15  and  _16
REMARK    9  A    between atoms: _16  and  _17
REMARK   10  A    between atoms: _20  and  _22
REMARK   11  A    between atoms: _22  and  _23
REMARK   12  A    between atoms: _22  and  _25
REMARK   13  A    between atoms: _25  and  _26
REMARK   14  A    between atoms: _26  and  _27
REMARK   15  A    between atoms: _30  and  _32
REMARK   16  A    between atoms: _32  and  _33
REMARK   17  A    between atoms: _32  and  _35
REMARK   18  A    between atoms: _35  and  _36
REMARK   19  A    between atoms: _41  and  _42
REMARK   20  A    between atoms: _44  and  _46
REMARK   21  A    between atoms: _46  and  _47
REMARK   22  A    between atoms: _46  and  _49
REMARK   23  A    between atoms: _49  and  _50
REMARK   24  A    between atoms: _55  and  _57
REMARK   25  A    between atoms: _57  and  _58
REMARK   26  A    between atoms: _57  and  _60
REMARK   27  A    between atoms: _60  and  _61
REMARK   28  A    between atoms: _67  and  _69
REMARK   29  A    between atoms: _69  and  _70
REMARK   30  A    between atoms: _69  and  _72
REMARK   31  A    between atoms: _72  and  _73
REMARK   32  A    between atoms: _76  and  _78
REMARK   33  A    between atoms: _78  and  _79
REMARK   34  A    between atoms: _78  and  _81
REMARK   35  A    between atoms: _81  and  _82
REMARK   36  A    between atoms: _85  and  _87
REMARK   37  A    between atoms: _87  and  _88
REMARK   38  A    between atoms: _90  and  _92
REMARK   39  A    between atoms: _92  and  _93
REMARK   40  A    between atoms: _92  and  _95
REMARK   41  A    between atoms: _95  and  _96
REMARK   42  A    between atoms: _98  and  _100
REMARK   43  A    between atoms: _100  and  _101
REMARK   44  A    between atoms: _104  and  _106
REMARK   45  A    between atoms: _106  and  _107
REMARK   46  A    between atoms: _106  and  _109
REMARK   47  A    between atoms: _109  and  _110
REMARK   48  A    between atoms: _113  and  _115
REMARK   49  A    between atoms: _115  and  _116
REMARK   50  A    between atoms: _115  and  _118
REMARK   51  A    between atoms: _118  and  _119
REMARK   52  A    between atoms: _129  and  _131
REMARK   53  A    between atoms: _131  and  _132
REMARK   54  A    between atoms: _131  and  _134
REMARK   55  A    between atoms: _134  and  _135
REMARK   56  A    between atoms: _138  and  _140
REMARK   57  A    between atoms: _140  and  _141
REMARK   58  A    between atoms: _140  and  _143
REMARK   59  A    between atoms: _143  and  _144
REMARK   60  A    between atoms: _146  and  _148
REMARK   61  A    between atoms: _148  and  _149
REMARK   62  A    between atoms: _148  and  _151
REMARK   63  A    between atoms: _151  and  _152
REMARK   64  A    between atoms: _157  and  _158
REMARK   65  A    between atoms: _160  and  _162
REMARK   66  A    between atoms: _162  and  _163
REMARK   67  A    between atoms: _165  and  _167
REMARK   68  A    between atoms: _167  and  _168
REMARK   69  A    between atoms: _167  and  _170
REMARK   70  A    between atoms: _170  and  _171
REMARK   71  A    between atoms: _174  and  _176
REMARK   72  A    between atoms: _176  and  _177
REMARK   73  A    between atoms: _179  and  _181
REMARK   74  A    between atoms: _181  and  _182
REMARK   75  A    between atoms: _181  and  _184
REMARK   76  A    between atoms: _184  and  _185
REMARK   77  A    between atoms: _187  and  _189
REMARK   78  A    between atoms: _189  and  _190
REMARK   79  A    between atoms: _189  and  _192
REMARK   80  A    between atoms: _192  and  _193
REMARK   81  A    between atoms: _195  and  _197
REMARK   82  A    between atoms: _197  and  _198
REMARK   83  A    between atoms: _197  and  _200
REMARK   84  A    between atoms: _200  and  _201
REMARK   85  A    between atoms: _203  and  _205
REMARK   86  A    between atoms: _205  and  _206
REMARK   87  A    between atoms: _209  and  _211
REMARK   88  A    between atoms: _211  and  _212
REMARK   89  A    between atoms: _211  and  _214
REMARK   90  A    between atoms: _214  and  _215
REMARK   91  A    between atoms: _215  and  _216
REMARK   92  A    between atoms: _221  and  _223
REMARK   93  A    between atoms: _223  and  _224
REMARK   94  A    between atoms: _223  and  _226
REMARK   95  A    between atoms: _226  and  _227
REMARK   96  A    between atoms: _233  and  _235
REMARK   97  A    between atoms: _235  and  _236
REMARK   98  A    between atoms: _235  and  _238
REMARK   99  A    between atoms: _238  and  _239
REMARK  100  A    between atoms: _239  and  _240
REMARK  101  A    between atoms: _245  and  _247
REMARK  102  A    between atoms: _247  and  _248
REMARK  103  A    between atoms: _247  and  _250
REMARK  104  A    between atoms: _250  and  _251
REMARK  105  A    between atoms: _251  and  _252
REMARK  106  A    between atoms: _257  and  _259
REMARK  107  A    between atoms: _259  and  _260
REMARK  108  A    between atoms: _259  and  _262
REMARK  109  A    between atoms: _262  and  _263
REMARK  110  A    between atoms: _266  and  _268
REMARK  111  A    between atoms: _268  and  _269
REMARK  112  A    between atoms: _268  and  _271
REMARK  113  A    between atoms: _271  and  _272
REMARK  114  A    between atoms: _275  and  _277
REMARK  115  A    between atoms: _277  and  _278
REMARK  116  A    between atoms: _277  and  _280
REMARK  117  A    between atoms: _280  and  _281
REMARK  118  A    between atoms: _286  and  _288
REMARK  119  A    between atoms: _288  and  _289
REMARK  120  A    between atoms: _288  and  _291
REMARK  121  A    between atoms: _291  and  _292
REMARK  122  A    between atoms: _297  and  _299
REMARK  123  A    between atoms: _299  and  _300
REMARK  124  A    between atoms: _302  and  _304
REMARK  125  A    between atoms: _304  and  _305
REMARK  126  A    between atoms: _304  and  _307
REMARK  127  A    between atoms: _307  and  _308
REMARK  128  A    between atoms: _311  and  _313
REMARK  129  A    between atoms: _313  and  _314
REMARK  130  A    between atoms: _316  and  _318
REMARK  131  A    between atoms: _318  and  _319
REMARK  132  A    between atoms: _318  and  _321
REMARK  133  A    between atoms: _321  and  _322
REMARK  134  A    between atoms: _325  and  _327
REMARK  135  A    between atoms: _327  and  _328
REMARK  136  A    between atoms: _331  and  _333
REMARK  137  A    between atoms: _333  and  _334
REMARK  138  A    between atoms: _333  and  _336
REMARK  139  A    between atoms: _336  and  _337
REMARK  140  A    between atoms: _340  and  _342
REMARK  141  A    between atoms: _342  and  _343
REMARK  142  A    between atoms: _342  and  _345
REMARK  143  A    between atoms: _345  and  _346
REMARK  144  A    between atoms: _349  and  _351
REMARK  145  A    between atoms: _351  and  _352
REMARK  146  A    between atoms: _351  and  _354
REMARK  147  A    between atoms: _354  and  _355
REMARK  148  A    between atoms: _355  and  _356
REMARK  149  A    between atoms: _361  and  _363
REMARK  150  A    between atoms: _363  and  _364
REMARK  151  A    between atoms: _363  and  _366
REMARK  152  A    between atoms: _366  and  _367
REMARK  153  A    between atoms: _373  and  _375
REMARK  154  A    between atoms: _375  and  _376
REMARK  155  A    between atoms: _375  and  _378
REMARK  156  A    between atoms: _378  and  _379
REMARK  157  A    between atoms: _382  and  _384
REMARK  158  A    between atoms: _384  and  _385
REMARK  159  A    between atoms: _388  and  _390
REMARK  160  A    between atoms: _390  and  _391
REMARK  161  A    between atoms: _390  and  _393
REMARK  162  A    between atoms: _393  and  _394
REMARK  163  A    between atoms: _397  and  _399
REMARK  164  A    between atoms: _399  and  _400
REMARK  165  A    between atoms: _399  and  _402
REMARK  166  A    between atoms: _402  and  _403
REMARK  167  A    between atoms: _406  and  _408
REMARK  168  A    between atoms: _408  and  _409
REMARK  169  A    between atoms: _411  and  _413
REMARK  170  A    between atoms: _413  and  _414
REMARK  171  A    between atoms: _413  and  _416
REMARK  172  A    between atoms: _416  and  _417
REMARK  173  A    between atoms: _420  and  _422
REMARK  174  A    between atoms: _422  and  _423
REMARK  175  A    between atoms: _422  and  _425
REMARK  176  A    between atoms: _425  and  _426
REMARK  177  A    between atoms: _429  and  _431
REMARK  178  A    between atoms: _431  and  _432
REMARK  179  A    between atoms: _431  and  _434
REMARK  180  A    between atoms: _434  and  _435
REMARK  181  A    between atoms: _438  and  _440
REMARK  182  A    between atoms: _440  and  _441
REMARK  183  A    between atoms: _440  and  _443
REMARK  184  A    between atoms: _443  and  _444
REMARK  185  A    between atoms: _447  and  _449
REMARK  186  A    between atoms: _449  and  _450
REMARK  187  A    between atoms: _449  and  _452
REMARK  188  A    between atoms: _452  and  _453
REMARK  189  A    between atoms: _456  and  _458
REMARK  190  A    between atoms: _458  and  _459
REMARK  191  A    between atoms: _458  and  _461
REMARK  192  A    between atoms: _461  and  _462
REMARK  193  A    between atoms: _464  and  _466
REMARK  194  A    between atoms: _466  and  _467
REMARK  195  A    between atoms: _466  and  _469
REMARK  196  A    between atoms: _469  and  _470
REMARK  197  A    between atoms: _475  and  _477
REMARK  198  A    between atoms: _477  and  _478
REMARK  199  A    between atoms: _477  and  _480
REMARK  200  A    between atoms: _480  and  _481
REMARK  201  A    between atoms: _483  and  _485
REMARK  202  A    between atoms: _485  and  _486
REMARK  203  A    between atoms: _485  and  _488
REMARK  204  A    between atoms: _488  and  _489
REMARK  205  A    between atoms: _492  and  _494
REMARK  206  A    between atoms: _494  and  _495
REMARK  207  A    between atoms: _494  and  _497
REMARK  208  A    between atoms: _497  and  _498
REMARK  209  A    between atoms: _504  and  _506
REMARK  210  A    between atoms: _506  and  _507
REMARK  211  A    between atoms: _506  and  _509
REMARK  212  A    between atoms: _509  and  _510
REMARK  213  A    between atoms: _512  and  _514
REMARK  214  A    between atoms: _514  and  _515
REMARK  215  A    between atoms: _514  and  _517
REMARK  216  A    between atoms: _517  and  _518
REMARK  217  A    between atoms: _521  and  _523
REMARK  218  A    between atoms: _523  and  _524
REMARK  219  A    between atoms: _523  and  _526
REMARK  220  A    between atoms: _526  and  _527
REMARK  221  A    between atoms: _533  and  _535
REMARK  222  A    between atoms: _535  and  _536
REMARK  223  A    between atoms: _538  and  _540
REMARK  224  A    between atoms: _540  and  _541
REMARK  225  A    between atoms: _540  and  _543
REMARK  226  A    between atoms: _543  and  _544
REMARK  227  A    between atoms: _547  and  _549
REMARK  228  A    between atoms: _549  and  _550
REMARK  229  A    between atoms: _552  and  _554
REMARK  230  A    between atoms: _554  and  _555
REMARK  231  A    between atoms: _554  and  _557
REMARK  232  A    between atoms: _557  and  _558
REMARK  233  A    between atoms: _563  and  _564
REMARK  234  A    between atoms: _566  and  _568
REMARK  235  A    between atoms: _568  and  _569
REMARK  236  A    between atoms: _568  and  _571
REMARK  237  A    between atoms: _571  and  _572
REMARK  238  A    between atoms: _575  and  _577
REMARK  239  A    between atoms: _577  and  _578
REMARK  240  A    between atoms: _577  and  _580
REMARK  241  A    between atoms: _580  and  _581
REMARK  242  A    between atoms: _584  and  _586
REMARK  243  A    between atoms: _586  and  _587
REMARK  244  A    between atoms: _586  and  _589
REMARK  245  A    between atoms: _592  and  _594
REMARK  246  A    between atoms: _594  and  _595
REMARK  247  A    between atoms: _594  and  _597
REMARK  248  A    between atoms: _597  and  _598
REMARK  249  A    between atoms: _598  and  _599
REMARK  250  A    between atoms: _605  and  _606
REMARK  251  A    between atoms: _611  and  _613
REMARK  252  A    between atoms: _613  and  _614
REMARK  253  A    between atoms: _613  and  _616
REMARK  254  A    between atoms: _616  and  _617
REMARK  255  A    between atoms: _617  and  _618
REMARK                            x       y       z     vdW  Elec       q    Type
REMARK                         _______ _______ _______ _____ _____    ______ ____
ROOT
ATOM      1  CA  THR A   1      18.631   4.438   7.060  0.00  0.00    +0.160 C 
ENDROOT
BRANCH   1   2
ATOM      2  N   THR A   1      18.672   5.893   7.113  0.00  0.00    -0.237 NA
ATOM      3  H   THR A   1      18.792   6.359   8.035  0.00  0.00    +0.142 HD
ENDBRANCH   1   2
BRANCH   1   4
ATOM      4  CB  THR A   1      19.407   3.812   8.254  0.00  0.00    +0.134 C 
ATOM      5  CG2 THR A   1      20.875   4.212   8.216  0.00  0.00    +0.034 C 
BRANCH   4   6
ATOM      6  OG1 THR A   1      18.834   4.261   9.480  0.00  0.00    -0.383 OA
ATOM      7  HG1 THR A   1      19.328   3.862  10.239  0.00  0.00    +0.210 HD
ENDBRANCH   4   6
ENDBRANCH   1   4
BRANCH   1   8
ATOM      8  C   THR A   1      17.141   4.060   7.155  0.00  0.00    +0.227 C 
ATOM      9  O   THR A   1      16.257   4.934   7.177  0.00  0.00    -0.287 OA
ENDBRANCH   1   8
TORSDOF 4
REMARK  Name = ../refined-set-2016/2web/2web_pocket.pdb
REMARK  255 active torsions:
REMARK  status: ('A' for Active; 'I' for Inactive)
REMARK    1  A    between atoms: _1  and  _3
REMARK    2  A    between atoms: _3  and  _4
REMARK    3  A    between atoms: _3  and  _6
REMARK    4  A    between atoms: _6  and  _7
REMARK    5  A    between atoms: _10  and  _12
REMARK    6  A    between atoms: _12  and  _13
REMARK    7  A    between atoms: _12  and  _15
REMARK    8  A    between atoms: _15  and  _16
REMARK    9  A    between atoms: _16  and  _17
REMARK   10  A    between atoms: _20  and  _22
REMARK   11  A    between atoms: _22  and  _23
REMARK   12  A    between atoms: _22  and  _25
REMARK   13  A    between atoms: _25  and  _26
REMARK   14  A    between atoms: _26  and  _27
REMARK   15  A    between atoms: _30  and  _32
REMARK   16  A    between atoms: _32  and  _33
REMARK   17  A    between atoms: _32  and  _35
REMARK   18  A    between atoms: _35  and  _36
REMARK   19  A    between atoms: _41  and  _42
REMARK   20  A    between atoms: _44  and  _46
REMARK   21  A    between atoms: _46  and  _47
REMARK   22  A    between atoms: _46  and  _49
REMARK   23  A    between atoms: _49  and  _50
REMARK   24  A    between atoms: _55  and  _57
REMARK   25  A    between atoms: _57  and  _58
REMARK   26  A    between atoms: _57  and  _60
REMARK   27  A    between atoms: _60  and  _61
REMARK   28  A    between atoms: _67  and  _69
REMARK   29  A    between atoms: _69  and  _70
REMARK   30  A    between atoms: _69  and  _72
REMARK   31  A    between atoms: _72  and  _73
REMARK   32  A    between atoms: _76  and  _78
REMARK   33  A    between atoms: _78  and  _79
REMARK   34  A    between atoms: _78  and  _81
REMARK   35  A    between atoms: _81  and  _82
REMARK   36  A    between atoms: _85  and  _87
REMARK   37  A    between atoms: _87  and  _88
REMARK   38  A    between atoms: _90  and  _92
REMARK   39  A    between atoms: _92  and  _93
REMARK   40  A    between atoms: _92  and  _95
REMARK   41  A    between atoms: _95  and  _96
REMARK   42  A    between atoms: _98  and  _100
REMARK   43  A    between atoms: _100  and  _101
REMARK   44  A    between atoms: _104  and  _106
REMARK   45  A    between atoms: _106  and  _107
REMARK   46  A    between atoms: _106  and  _109
REMARK   47  A    between atoms: _109  and  _110
REMARK   48  A    between atoms: _113  and  _115
REMARK   49  A    between atoms: _115  and  _116
REMARK   50  A    between atoms: _115  and  _118
REMARK   51  A    between atoms: _118  and  _119
REMARK   52  A    between atoms: _129  and  _131
REMARK   53  A    between atoms: _131  and  _132
REMARK   54  A    between atoms: _131  and  _134
REMARK   55  A    between atoms: _134  and  _135
REMARK   56  A    between atoms: _138  and  _140
REMARK   57  A    between atoms: _140  and  _141
REMARK   58  A    between atoms: _140  and  _143
REMARK   59  A    between atoms: _143  and  _144
REMARK   60  A    between atoms: _146  and  _148
REMARK   61  A    between atoms: _148  and  _149
REMARK   62  A    between atoms: _148  and  _151
REMARK   63  A    between atoms: _151  and  _152
REMARK   64  A    between atoms: _157  and  _158
REMARK   65  A    between atoms: _160  and  _162
REMARK   66  A    between atoms: _162  and  _163
REMARK   67  A    between atoms: _165  and  _167
REMARK   68  A    between atoms: _167  and  _168
REMARK   69  A    between atoms: _167  and  _170
REMARK   70  A    between atoms: _170  and  _171
REMARK   71  A    between atoms: _174  and  _176
REMARK   72  A    between atoms: _176  and  _177
REMARK   73  A    between atoms: _179  and  _181
REMARK   74  A    between atoms: _181  and  _182
REMARK   75  A    between atoms: _181  and  _184
REMARK   76  A    between atoms: _184  and  _185
REMARK   77  A    between atoms: _187  and  _189
REMARK   78  A    between atoms: _189  and  _190
REMARK   79  A    between atoms: _189  and  _192
REMARK   80  A    between atoms: _192  and  _193
REMARK   81  A    between atoms: _195  and  _197
REMARK   82  A    between atoms: _197  and  _198
REMARK   83  A    between atoms: _197  and  _200
REMARK   84  A    between atoms: _200  and  _201
REMARK   85  A    between atoms: _203  and  _205
REMARK   86  A    between atoms: _205  and  _206
REMARK   87  A    between atoms: _209  and  _211
REMARK   88  A    between atoms: _211  and  _212
REMARK   89  A    between atoms: _211  and  _214
REMARK   90  A    between atoms: _214  and  _215
REMARK   91  A    between atoms: _215  and  _216
REMARK   92  A    between atoms: _221  and  _223
REMARK   93  A    between atoms: _223  and  _224
REMARK   94  A    between atoms: _223  and  _226
REMARK   95  A    between atoms: _226  and  _227
REMARK   96  A    between atoms: _233  and  _235
REMARK   97  A    between atoms: _235  and  _236
REMARK   98  A    between atoms: _235  and  _238
REMARK   99  A    between atoms: _238  and  _239
REMARK  100  A    between atoms: _239  and  _240
REMARK  101  A    between atoms: _245  and  _247
REMARK  102  A    between atoms: _247  and  _248
REMARK  103  A    between atoms: _247  and  _250
REMARK  104  A    between atoms: _250  and  _251
REMARK  105  A    between atoms: _251  and  _252
REMARK  106  A    between atoms: _257  and  _259
REMARK  107  A    between atoms: _259  and  _260
REMARK  108  A    between atoms: _259  and  _262
REMARK  109  A    between atoms: _262  and  _263
REMARK  110  A    between atoms: _266  and  _268
REMARK  111  A    between atoms: _268  and  _269
REMARK  112  A    between atoms: _268  and  _271
REMARK  113  A    between atoms: _271  and  _272
REMARK  114  A    between atoms: _275  and  _277
REMARK  115  A    between atoms: _277  and  _278
REMARK  116  A    between atoms: _277  and  _280
REMARK  117  A    between atoms: _280  and  _281
REMARK  118  A    between atoms: _286  and  _288
REMARK  119  A    between atoms: _288  and  _289
REMARK  120  A    between atoms: _288  and  _291
REMARK  121  A    between atoms: _291  and  _292
REMARK  122  A    between atoms: _297  and  _299
REMARK  123  A    between atoms: _299  and  _300
REMARK  124  A    between atoms: _302  and  _304
REMARK  125  A    between atoms: _304  and  _305
REMARK  126  A    between atoms: _304  and  _307
REMARK  127  A    between atoms: _307  and  _308
REMARK  128  A    between atoms: _311  and  _313
REMARK  129  A    between atoms: _313  and  _314
REMARK  130  A    between atoms: _316  and  _318
REMARK  131  A    between atoms: _318  and  _319
REMARK  132  A    between atoms: _318  and  _321
REMARK  133  A    between atoms: _321  and  _322
REMARK  134  A    between atoms: _325  and  _327
REMARK  135  A    between atoms: _327  and  _328
REMARK  136  A    between atoms: _331  and  _333
REMARK  137  A    between atoms: _333  and  _334
REMARK  138  A    between atoms: _333  and  _336
REMARK  139  A    between atoms: _336  and  _337
REMARK  140  A    between atoms: _340  and  _342
REMARK  141  A    between atoms: _342  and  _343
REMARK  142  A    between atoms: _342  and  _345
REMARK  143  A    between atoms: _345  and  _346
REMARK  144  A    between atoms: _349  and  _351
REMARK  145  A    between atoms: _351  and  _352
REMARK  146  A    between atoms: _351  and  _354
REMARK  147  A    between atoms: _354  and  _355
REMARK  148  A    between atoms: _355  and  _356
REMARK  149  A    between atoms: _361  and  _363
REMARK  150  A    between atoms: _363  and  _364
REMARK  151  A    between atoms: _363  and  _366
REMARK  152  A    between atoms: _366  and  _367
REMARK  153  A    between atoms: _373  and  _375
REMARK  154  A    between atoms: _375  and  _376
REMARK  155  A    between atoms: _375  and  _378
REMARK  156  A    between atoms: _378  and  _379
REMARK  157  A    between atoms: _382  and  _384
REMARK  158  A    between atoms: _384  and  _385
REMARK  159  A    between atoms: _388  and  _390
REMARK  160  A    between atoms: _390  and  _391
REMARK  161  A    between atoms: _390  and  _393
REMARK  162  A    between atoms: _393  and  _394
REMARK  163  A    between atoms: _397  and  _399
REMARK  164  A    between atoms: _399  and  _400
REMARK  165  A    between atoms: _399  and  _402
REMARK  166  A    between atoms: _402  and  _403
REMARK  167  A    between atoms: _406  and  _408
REMARK  168  A    between atoms: _408  and  _409
REMARK  169  A    between atoms: _411  and  _413
REMARK  170  A    between atoms: _413  and  _414
REMARK  171  A    between atoms: _413  and  _416
REMARK  172  A    between atoms: _416  and  _417
REMARK  173  A    between atoms: _420  and  _422
REMARK  174  A    between atoms: _422  and  _423
REMARK  175  A    between atoms: _422  and  _425
REMARK  176  A    between atoms: _425  and  _426
REMARK  177  A    between atoms: _429  and  _431
REMARK  178  A    between atoms: _431  and  _432
REMARK  179  A    between atoms: _431  and  _434
REMARK  180  A    between atoms: _434  and  _435
REMARK  181  A    between atoms: _438  and  _440
REMARK  182  A    between atoms: _440  and  _441
REMARK  183  A    between atoms: _440  and  _443
REMARK  184  A    between atoms: _443  and  _444
REMARK  185  A    between atoms: _447  and  _449
REMARK  186  A    between atoms: _449  and  _450
REMARK  187  A    between atoms: _449  and  _452
REMARK  188  A    between atoms: _452  and  _453
REMARK  189  A    between atoms: _456  and  _458
REMARK  190  A    between atoms: _458  and  _459
REMARK  191  A    between atoms: _458  and  _461
REMARK  192  A    between atoms: _461  and  _462
REMARK  193  A    between atoms: _464  and  _466
REMARK  194  A    between atoms: _466  and  _467
REMARK  195  A    between atoms: _466  and  _469
REMARK  196  A    between atoms: _469  and  _470
REMARK  197  A    between atoms: _475  and  _477
REMARK  198  A    between atoms: _477  and  _478
REMARK  199  A    between atoms: _477  and  _480
REMARK  200  A    between atoms: _480  and  _481
REMARK  201  A    between atoms: _483  and  _485
REMARK  202  A    between atoms: _485  and  _486
REMARK  203  A    between atoms: _485  and  _488
REMARK  204  A    between atoms: _488  and  _489
REMARK  205  A    between atoms: _492  and  _494
REMARK  206  A    between atoms: _494  and  _495
REMARK  207  A    between atoms: _494  and  _497
REMARK  208  A    between atoms: _497  and  _498
REMARK  209  A    between atoms: _504  and  _506
REMARK  210  A    between atoms: _506  and  _507
REMARK  211  A    between atoms: _506  and  _509
REMARK  212  A    between atoms: _509  and  _510
REMARK  213  A    between atoms: _512  and  _514
REMARK  214  A    between atoms: _514  and  _515
REMARK  215  A    between atoms: _514  and  _517
REMARK  216  A    between atoms: _517  and  _518
REMARK  217  A    between atoms: _521  and  _523
REMARK  218  A    between atoms: _523  and  _524
REMARK  219  A    between atoms: _523  and  _526
REMARK  220  A    between atoms: _526  and  _527
REMARK  221  A    between atoms: _533  and  _535
REMARK  222  A    between atoms: _535  and  _536
REMARK  223  A    between atoms: _538  and  _540
REMARK  224  A    between atoms: _540  and  _541
REMARK  225  A    between atoms: _540  and  _543
REMARK  226  A    between atoms: _543  and  _544
REMARK  227  A    between atoms: _547  and  _549
REMARK  228  A    between atoms: _549  and  _550
REMARK  229  A    between atoms: _552  and  _554
REMARK  230  A    between atoms: _554  and  _555
REMARK  231  A    between atoms: _554  and  _557
REMARK  232  A    between atoms: _557  and  _558
REMARK  233  A    between atoms: _563  and  _564
REMARK  234  A    between atoms: _566  and  _568
REMARK  235  A    between atoms: _568  and  _569
REMARK  236  A    between atoms: _568  and  _571
REMARK  237  A    between atoms: _571  and  _572
REMARK  238  A    between atoms: _575  and  _577
REMARK  239  A    between atoms: _577  and  _578
REMARK  240  A    between atoms: _577  and  _580
REMARK  241  A    between atoms: _580  and  _581
REMARK  242  A    between atoms: _584  and  _586
REMARK  243  A    between atoms: _586  and  _587
REMARK  244  A    between atoms: _586  and  _589
REMARK  245  A    between atoms: _592  and  _594
REMARK  246  A    between atoms: _594  and  _595
REMARK  247  A    between atoms: _594  and  _597
REMARK  248  A    between atoms: _597  and  _598
REMARK  249  A    between atoms: _598  and  _599
REMARK  250  A    between atoms: _605  and  _606
REMARK  251  A    between atoms: _611  and  _613
REMARK  252  A    between atoms: _613  and  _614
REMARK  253  A    between atoms: _613  and  _616
REMARK  254  A    between atoms: _616  and  _617
REMARK  255  A    between atoms: _617  and  _618
REMARK                            x       y       z     vdW  Elec       q    Type
REMARK                         _______ _______ _______ _____ _____    ______ ____
ROOT
ATOM      1  CA  GLU A   2      19.810   7.492  11.724  0.00  0.00    +0.149 C 
ENDROOT
BRANCH   1   4
ATOM      2  C   GLU A   1      17.802   6.492  12.634  0.00  0.00    +0.238 C 
ATOM      3  O   GLU A   1      18.029   6.975  13.754  0.00  0.00    -0.274 OA
ATOM      4  N   GLU A   2      18.622   6.659  11.604  0.00  0.00    -0.297 N 
ATOM      5  H   GLU A   2      18.413   6.189  10.700  0.00  0.00    +0.150 HD
BRANCH   2   6
ATOM      6  CA  GLU A   1      16.537   5.676  12.372  0.00  0.00    +0.145 C 
BRANCH   6   7
ATOM      7  N   GLU A   1      16.038   5.919  11.034  0.00  0.00    -0.238 NA
ATOM      8  H   GLU A   1      16.033   5.157  10.326  0.00  0.00    +0.142 HD
ENDBRANCH   6   7
BRANCH   6   9
ATOM      9  CB  GLU A   1      16.796   4.188  12.553  0.00  0.00    +0.038 C 
BRANCH   9  10
ATOM     10  CG  GLU A   1      16.958   3.822  13.998  0.00  0.00    +0.116 C 
BRANCH  10  11
ATOM     11  CD  GLU A   1      17.212   2.352  14.157  0.00  0.00    +0.365 C 
ATOM     12  OE2 GLU A   1      16.848   1.792  15.214  0.00  0.00    -0.246 OA
ATOM     13  OE1 GLU A   1      17.788   1.765  13.218  0.00  0.00    -0.246 OA
ENDBRANCH  10  11
ENDBRANCH   9  10
ENDBRANCH   6   9
ENDBRANCH   2   6
ENDBRANCH   1   4
BRANCH   1  14
ATOM     14  C   GLU A   2      20.136   8.033  10.349  0.00  0.00    +0.241 C 
ATOM     15  N   TYR A   3      21.016   9.032  10.303  0.00  0.00    -0.298 N 
ATOM     16  H   TYR A   3      21.445   9.373  11.187  0.00  0.00    +0.150 HD
ATOM     17  O   GLU A   2      19.612   7.535   9.345  0.00  0.00    -0.273 OA
BRANCH  15  18
ATOM     18  CA  TYR A   3      21.389   9.655   9.049  0.00  0.00    +0.141 C 
BRANCH  18  19
ATOM     19  C   TYR A   3      22.902   9.572   8.901  0.00  0.00    +0.227 C 
ATOM     20  O   TYR A   3      23.661   9.940   9.801  0.00  0.00    -0.286 OA
ENDBRANCH  18  19
BRANCH  18  21
ATOM     21  CB  TYR A   3      20.952  11.124   9.050  0.00  0.00    +0.054 C 
BRANCH  21  22
ATOM     22  CG  TYR A   3      19.452  11.296   8.975  0.00  0.00    -0.020 A 
ATOM     23  CD2 TYR A   3      18.649  11.068  10.084  0.00  0.00    -0.001 A 
ATOM     24  CE2 TYR A   3      17.262  11.177  10.014  0.00  0.00    +0.036 A 
ATOM     25  CZ  TYR A   3      16.687  11.557   8.808  0.00  0.00    +0.134 A 
ATOM     26  CE1 TYR A   3      17.457  11.781   7.697  0.00  0.00    +0.036 A 
ATOM     27  CD1 TYR A   3      18.832  11.661   7.773  0.00  0.00    -0.001 A 
BRANCH  25  28
ATOM     28  OH  TYR A   3      15.325  11.676   8.718  0.00  0.00    -0.506 OA
ATOM     29  HH  TYR A   3      14.982  11.032   8.048  0.00  0.00    +0.292 HD
ENDBRANCH  25  28
ENDBRANCH  21  22
ENDBRANCH  18  21
ENDBRANCH  15  18
ENDBRANCH   1  14
BRANCH   1  30
ATOM     30  CB  GLU A   2      20.994   6.735  12.316  0.00  0.00    +0.041 C 
BRANCH  30  31
ATOM     31  CG  GLU A   2      21.452   5.546  11.497  0.00  0.00    +0.116 C 
BRANCH  31  32
ATOM     32  CD  GLU A   2      22.561   4.770  12.198  0.00  0.00    +0.365 C 
ATOM     33  OE2 GLU A   2      22.293   3.650  12.673  0.00  0.00    -0.246 OA
ATOM     34  OE1 GLU A   2      23.702   5.270  12.253  0.00  0.00    -0.246 OA
ENDBRANCH  31  32
ENDBRANCH  30  31
ENDBRANCH   1  30
TORSDOF 15
REMARK  Name = ../refined-set-2016/2web/2web_pocket.pdb
REMARK  255 active torsions:
REMARK  status: ('A' for Active; 'I' for Inactive)
REMARK    1  A    between atoms: _1  and  _3
REMARK    2  A    between atoms: _3  and  _4
REMARK    3  A    between atoms: _3  and  _6
REMARK    4  A    between atoms: _6  and  _7
REMARK    5  A    between atoms: _10  and  _12
REMARK    6  A    between atoms: _12  and  _13
REMARK    7  A    between atoms: _12  and  _15
REMARK    8  A    between atoms: _15  and  _16
REMARK    9  A    between atoms: _16  and  _17
REMARK   10  A    between atoms: _20  and  _22
REMARK   11  A    between atoms: _22  and  _23
REMARK   12  A    between atoms: _22  and  _25
REMARK   13  A    between atoms: _25  and  _26
REMARK   14  A    between atoms: _26  and  _27
REMARK   15  A    between atoms: _30  and  _32
REMARK   16  A    between atoms: _32  and  _33
REMARK   17  A    between atoms: _32  and  _35
REMARK   18  A    between atoms: _35  and  _36
REMARK   19  A    between atoms: _41  and  _42
REMARK   20  A    between atoms: _44  and  _46
REMARK   21  A    between atoms: _46  and  _47
REMARK   22  A    between atoms: _46  and  _49
REMARK   23  A    between atoms: _49  and  _50
REMARK   24  A    between atoms: _55  and  _57
REMARK   25  A    between atoms: _57  and  _58
REMARK   26  A    between atoms: _57  and  _60
REMARK   27  A    between atoms: _60  and  _61
REMARK   28  A    between atoms: _67  and  _69
REMARK   29  A    between atoms: _69  and  _70
REMARK   30  A    between atoms: _69  and  _72
REMARK   31  A    between atoms: _72  and  _73
REMARK   32  A    between atoms: _76  and  _78
REMARK   33  A    between atoms: _78  and  _79
REMARK   34  A    between atoms: _78  and  _81
REMARK   35  A    between atoms: _81  and  _82
REMARK   36  A    between atoms: _85  and  _87
REMARK   37  A    between atoms: _87  and  _88
REMARK   38  A    between atoms: _90  and  _92
REMARK   39  A    between atoms: _92  and  _93
REMARK   40  A    between atoms: _92  and  _95
REMARK   41  A    between atoms: _95  and  _96
REMARK   42  A    between atoms: _98  and  _100
REMARK   43  A    between atoms: _100  and  _101
REMARK   44  A    between atoms: _104  and  _106
REMARK   45  A    between atoms: _106  and  _107
REMARK   46  A    between atoms: _106  and  _109
REMARK   47  A    between atoms: _109  and  _110
REMARK   48  A    between atoms: _113  and  _115
REMARK   49  A    between atoms: _115  and  _116
REMARK   50  A    between atoms: _115  and  _118
REMARK   51  A    between atoms: _118  and  _119
REMARK   52  A    between atoms: _129  and  _131
REMARK   53  A    between atoms: _131  and  _132
REMARK   54  A    between atoms: _131  and  _134
REMARK   55  A    between atoms: _134  and  _135
REMARK   56  A    between atoms: _138  and  _140
REMARK   57  A    between atoms: _140  and  _141
REMARK   58  A    between atoms: _140  and  _143
REMARK   59  A    between atoms: _143  and  _144
REMARK   60  A    between atoms: _146  and  _148
REMARK   61  A    between atoms: _148  and  _149
REMARK   62  A    between atoms: _148  and  _151
REMARK   63  A    between atoms: _151  and  _152
REMARK   64  A    between atoms: _157  and  _158
REMARK   65  A    between atoms: _160  and  _162
REMARK   66  A    between atoms: _162  and  _163
REMARK   67  A    between atoms: _165  and  _167
REMARK   68  A    between atoms: _167  and  _168
REMARK   69  A    between atoms: _167  and  _170
REMARK   70  A    between atoms: _170  and  _171
REMARK   71  A    between atoms: _174  and  _176
REMARK   72  A    between atoms: _176  and  _177
REMARK   73  A    between atoms: _179  and  _181
REMARK   74  A    between atoms: _181  and  _182
REMARK   75  A    between atoms: _181  and  _184
REMARK   76  A    between atoms: _184  and  _185
REMARK   77  A    between atoms: _187  and  _189
REMARK   78  A    between atoms: _189  and  _190
REMARK   79  A    between atoms: _189  and  _192
REMARK   80  A    between atoms: _192  and  _193
REMARK   81  A    between atoms: _195  and  _197
REMARK   82  A    between atoms: _197  and  _198
REMARK   83  A    between atoms: _197  and  _200
REMARK   84  A    between atoms: _200  and  _201
REMARK   85  A    between atoms: _203  and  _205
REMARK   86  A    between atoms: _205  and  _206
REMARK   87  A    between atoms: _209  and  _211
REMARK   88  A    between atoms: _211  and  _212
REMARK   89  A    between atoms: _211  and  _214
REMARK   90  A    between atoms: _214  and  _215
REMARK   91  A    between atoms: _215  and  _216
REMARK   92  A    between atoms: _221  and  _223
REMARK   93  A    between atoms: _223  and  _224
REMARK   94  A    between atoms: _223  and  _226
REMARK   95  A    between atoms: _226  and  _227
REMARK   96  A    between atoms: _233  and  _235
REMARK   97  A    between atoms: _235  and  _236
REMARK   98  A    between atoms: _235  and  _238
REMARK   99  A    between atoms: _238  and  _239
REMARK  100  A    between atoms: _239  and  _240
REMARK  101  A    between atoms: _245  and  _247
REMARK  102  A    between atoms: _247  and  _248
REMARK  103  A    between atoms: _247  and  _250
REMARK  104  A    between atoms: _250  and  _251
REMARK  105  A    between atoms: _251  and  _252
REMARK  106  A    between atoms: _257  and  _259
REMARK  107  A    between atoms: _259  and  _260
REMARK  108  A    between atoms: _259  and  _262
REMARK  109  A    between atoms: _262  and  _263
REMARK  110  A    between atoms: _266  and  _268
REMARK  111  A    between atoms: _268  and  _269
REMARK  112  A    between atoms: _268  and  _271
REMARK  113  A    between atoms: _271  and  _272
REMARK  114  A    between atoms: _275  and  _277
REMARK  115  A    between atoms: _277  and  _278
REMARK  116  A    between atoms: _277  and  _280
REMARK  117  A    between atoms: _280  and  _281
REMARK  118  A    between atoms: _286  and  _288
REMARK  119  A    between atoms: _288  and  _289
REMARK  120  A    between atoms: _288  and  _291
REMARK  121  A    between atoms: _291  and  _292
REMARK  122  A    between atoms: _297  and  _299
REMARK  123  A    between atoms: _299  and  _300
REMARK  124  A    between atoms: _302  and  _304
REMARK  125  A    between atoms: _304  and  _305
REMARK  126  A    between atoms: _304  and  _307
REMARK  127  A    between atoms: _307  and  _308
REMARK  128  A    between atoms: _311  and  _313
REMARK  129  A    between atoms: _313  and  _314
REMARK  130  A    between atoms: _316  and  _318
REMARK  131  A    between atoms: _318  and  _319
REMARK  132  A    between atoms: _318  and  _321
REMARK  133  A    between atoms: _321  and  _322
REMARK  134  A    between atoms: _325  and  _327
REMARK  135  A    between atoms: _327  and  _328
REMARK  136  A    between atoms: _331  and  _333
REMARK  137  A    between atoms: _333  and  _334
REMARK  138  A    between atoms: _333  and  _336
REMARK  139  A    between atoms: _336  and  _337
REMARK  140  A    between atoms: _340  and  _342
REMARK  141  A    between atoms: _342  and  _343
REMARK  142  A    between atoms: _342  and  _345
REMARK  143  A    between atoms: _345  and  _346
REMARK  144  A    between atoms: _349  and  _351
REMARK  145  A    between atoms: _351  and  _352
REMARK  146  A    between atoms: _351  and  _354
REMARK  147  A    between atoms: _354  and  _355
REMARK  148  A    between atoms: _355  and  _356
REMARK  149  A    between atoms: _361  and  _363
REMARK  150  A    between atoms: _363  and  _364
REMARK  151  A    between atoms: _363  and  _366
REMARK  152  A    between atoms: _366  and  _367
REMARK  153  A    between atoms: _373  and  _375
REMARK  154  A    between atoms: _375  and  _376
REMARK  155  A    between atoms: _375  and  _378
REMARK  156  A    between atoms: _378  and  _379
REMARK  157  A    between atoms: _382  and  _384
REMARK  158  A    between atoms: _384  and  _385
REMARK  159  A    between atoms: _388  and  _390
REMARK  160  A    between atoms: _390  and  _391
REMARK  161  A    between atoms: _390  and  _393
REMARK  162  A    between atoms: _393  and  _394
REMARK  163  A    between atoms: _397  and  _399
REMARK  164  A    between atoms: _399  and  _400
REMARK  165  A    between atoms: _399  and  _402
REMARK  166  A    between atoms: _402  and  _403
REMARK  167  A    between atoms: _406  and  _408
REMARK  168  A    between atoms: _408  and  _409
REMARK  169  A    between atoms: _411  and  _413
REMARK  170  A    between atoms: _413  and  _414
REMARK  171  A    between atoms: _413  and  _416
REMARK  172  A    between atoms: _416  and  _417
REMARK  173  A    between atoms: _420  and  _422
REMARK  174  A    between atoms: _422  and  _423
REMARK  175  A    between atoms: _422  and  _425
REMARK  176  A    between atoms: _425  and  _426
REMARK  177  A    between atoms: _429  and  _431
REMARK  178  A    between atoms: _431  and  _432
REMARK  179  A    between atoms: _431  and  _434
REMARK  180  A    between atoms: _434  and  _435
REMARK  181  A    between atoms: _438  and  _440
REMARK  182  A    between atoms: _440  and  _441
REMARK  183  A    between atoms: _440  and  _443
REMARK  184  A    between atoms: _443  and  _444
REMARK  185  A    between atoms: _447  and  _449
REMARK  186  A    between atoms: _449  and  _450
REMARK  187  A    between atoms: _449  and  _452
REMARK  188  A    between atoms: _452  and  _453
REMARK  189  A    between atoms: _456  and  _458
REMARK  190  A    between atoms: _458  and  _459
REMARK  191  A    between atoms: _458  and  _461
REMARK  192  A    between atoms: _461  and  _462
REMARK  193  A    between atoms: _464  and  _466
REMARK  194  A    between atoms: _466  and  _467
REMARK  195  A    between atoms: _466  and  _469
REMARK  196  A    between atoms: _469  and  _470
REMARK  197  A    between atoms: _475  and  _477
REMARK  198  A    between atoms: _477  and  _478
REMARK  199  A    between atoms: _477  and  _480
REMARK  200  A    between atoms: _480  and  _481
REMARK  201  A    between atoms: _483  and  _485
REMARK  202  A    between atoms: _485  and  _486
REMARK  203  A    between atoms: _485  and  _488
REMARK  204  A    between atoms: _488  and  _489
REMARK  205  A    between atoms: _492  and  _494
REMARK  206  A    between atoms: _494  and  _495
REMARK  207  A    between atoms: _494  and  _497
REMARK  208  A    between atoms: _497  and  _498
REMARK  209  A    between atoms: _504  and  _506
REMARK  210  A    between atoms: _506  and  _507
REMARK  211  A    between atoms: _506  and  _509
REMARK  212  A    between atoms: _509  and  _510
REMARK  213  A    between atoms: _512  and  _514
REMARK  214  A    between atoms: _514  and  _515
REMARK  215  A    between atoms: _514  and  _517
REMARK  216  A    between atoms: _517  and  _518
REMARK  217  A    between atoms: _521  and  _523
REMARK  218  A    between atoms: _523  and  _524
REMARK  219  A    between atoms: _523  and  _526
REMARK  220  A    between atoms: _526  and  _527
REMARK  221  A    between atoms: _533  and  _535
REMARK  222  A    between atoms: _535  and  _536
REMARK  223  A    between atoms: _538  and  _540
REMARK  224  A    between atoms: _540  and  _541
REMARK  225  A    between atoms: _540  and  _543
REMARK  226  A    between atoms: _543  and  _544
REMARK  227  A    between atoms: _547  and  _549
REMARK  228  A    between atoms: _549  and  _550
REMARK  229  A    between atoms: _552  and  _554
REMARK  230  A    between atoms: _554  and  _555
REMARK  231  A    between atoms: _554  and  _557
REMARK  232  A    between atoms: _557  and  _558
REMARK  233  A    between atoms: _563  and  _564
REMARK  234  A    between atoms: _566  and  _568
REMARK  235  A    between atoms: _568  and  _569
REMARK  236  A    between atoms: _568  and  _571
REMARK  237  A    between atoms: _571  and  _572
REMARK  238  A    between atoms: _575  and  _577
REMARK  239  A    between atoms: _577  and  _578
REMARK  240  A    between atoms: _577  and  _580
REMARK  241  A    between atoms: _580  and  _581
REMARK  242  A    between atoms: _584  and  _586
REMARK  243  A    between atoms: _586  and  _587
REMARK  244  A    between atoms: _586  and  _589
REMARK  245  A    between atoms: _592  and  _594
REMARK  246  A    between atoms: _594  and  _595
REMARK  247  A    between atoms: _594  and  _597
REMARK  248  A    between atoms: _597  and  _598
REMARK  249  A    between atoms: _598  and  _599
REMARK  250  A    between atoms: _605  and  _606
REMARK  251  A    between atoms: _611  and  _613
REMARK  252  A    between atoms: _613  and  _614
REMARK  253  A    between atoms: _613  and  _616
REMARK  254  A    between atoms: _616  and  _617
REMARK  255  A    between atoms: _617  and  _618
REMARK                            x       y       z     vdW  Elec       q    Type
REMARK                         _______ _______ _______ _____ _____    ______ ____
ROOT
ATOM      1  CA  THR A   4      25.023  17.737  17.167  0.00  0.00    +0.176 C 
ENDROOT
BRANCH   1   2
ATOM      2  C   THR A   4      24.915  17.646  18.690  0.00  0.00    +0.243 C 
ATOM      3  O   THR A   4      24.982  18.668  19.365  0.00  0.00    -0.273 OA
ATOM      4  N   GLY A   5      24.657  16.445  19.210  0.00  0.00    -0.295 N 
ATOM      5  H   GLY A   5      24.548  15.634  18.568  0.00  0.00    +0.150 HD
BRANCH   4   6
ATOM      6  CA  GLY A   5      24.521  16.225  20.658  0.00  0.00    +0.176 C 
BRANCH   6   7
ATOM      7  C   GLY A   5      25.796  15.750  21.368  0.00  0.00    +0.243 C 
ATOM      8  O   GLY A   5      25.769  15.492  22.577  0.00  0.00    -0.273 OA
ATOM      9  N   SER A   6      26.885  15.585  20.623  0.00  0.00    -0.295 N 
ATOM     10  H   SER A   6      26.842  15.744  19.596  0.00  0.00    +0.150 HD
BRANCH   9  11
ATOM     11  CA  SER A   6      28.149  15.178  21.251  0.00  0.00    +0.178 C 
BRANCH  11  12
ATOM     12  C   SER A   6      29.323  15.820  20.513  0.00  0.00    +0.243 C 
ATOM     13  N   ALA A   7      30.476  15.837  21.170  0.00  0.00    -0.297 N 
ATOM     14  H   ALA A   7      30.545  15.360  22.092  0.00  0.00    +0.150 HD
ATOM     15  O   SER A   6      29.163  16.387  19.424  0.00  0.00    -0.273 OA
BRANCH  13  16
ATOM     16  CA  ALA A   7      31.643  16.508  20.627  0.00  0.00    +0.149 C 
ATOM     17  CB  ALA A   7      32.071  17.673  21.546  0.00  0.00    +0.031 C 
BRANCH  16  18
ATOM     18  C   ALA A   7      32.824  15.662  20.189  0.00  0.00    +0.241 C 
ATOM     19  N   ASP A   8      32.616  14.350  20.095  0.00  0.00    -0.298 N 
ATOM     20  H   ASP A   8      31.681  13.959  20.329  0.00  0.00    +0.150 HD
ATOM     21  O   ALA A   7      33.931  16.179  20.021  0.00  0.00    -0.273 OA
BRANCH  19  22
ATOM     22  CA  ASP A   8      33.690  13.452  19.665  0.00  0.00    +0.148 C 
BRANCH  22  23
ATOM     23  C   ASP A   8      33.560  12.962  18.221  0.00  0.00    +0.227 C 
ATOM     24  O   ASP A   8      32.473  12.613  17.778  0.00  0.00    -0.286 OA
ENDBRANCH  22  23
BRANCH  22  25
ATOM     25  CB  ASP A   8      33.846  12.245  20.610  0.00  0.00    +0.142 C 
BRANCH  25  26
ATOM     26  CG  ASP A   8      34.292  12.650  22.018  0.00  0.00    +0.367 C 
ATOM     27  OD2 ASP A   8      33.730  13.607  22.592  0.00  0.00    -0.246 OA
ATOM     28  OD1 ASP A   8      35.277  12.051  22.506  0.00  0.00    -0.246 OA
ENDBRANCH  25  26
ENDBRANCH  22  25
ENDBRANCH  19  22
ENDBRANCH  16  18
ENDBRANCH  13  16
ENDBRANCH  11  12
BRANCH  11  29
ATOM     29  CB  SER A   6      28.290  13.649  21.343  0.00  0.00    +0.166 C 
BRANCH  29  30
ATOM     30  OG  SER A   6      28.559  13.124  20.060  0.00  0.00    -0.380 OA
ATOM     31  H   SER A   6      28.650  12.140  20.120  0.00  0.00    +0.211 HD
ENDBRANCH  29  30
ENDBRANCH  11  29
ENDBRANCH   9  11
ENDBRANCH   6   7
ENDBRANCH   4   6
ENDBRANCH   1   2
BRANCH   1  34
ATOM     32  C   ASP A   3      25.882  15.556  16.591  0.00  0.00    +0.241 C 
ATOM     33  O   ASP A   3      26.924  15.781  17.182  0.00  0.00    -0.273 OA
ATOM     34  N   THR A   4      24.895  16.431  16.519  0.00  0.00    -0.295 N 
ATOM     35  H   THR A   4      24.026  16.191  16.001  0.00  0.00    +0.150 HD
BRANCH  32  36
ATOM     36  CA  ASP A   3      25.640  14.232  15.895  0.00  0.00    +0.160 C 
BRANCH  36  38
ATOM     37  C   PHE A   2      25.788  13.675  13.561  0.00  0.00    +0.241 C 
ATOM     38  N   ASP A   3      26.383  14.109  14.664  0.00  0.00    -0.297 N 
ATOM     39  H   ASP A   3      27.391  14.362  14.642  0.00  0.00    +0.150 HD
ATOM     40  O   PHE A   2      24.558  13.591  13.456  0.00  0.00    -0.273 OA
BRANCH  37  41
ATOM     41  CA  PHE A   2      26.701  13.406  12.386  0.00  0.00    +0.153 C 
BRANCH  41  44
ATOM     42  C   ASN A   1      26.813  10.957  12.497  0.00  0.00    +0.239 C 
ATOM     43  O   ASN A   1      27.528  11.013  13.489  0.00  0.00    -0.274 OA
ATOM     44  N   PHE A   2      26.409  12.056  11.860  0.00  0.00    -0.297 N 
ATOM     45  H   PHE A   2      25.876  11.961  10.972  0.00  0.00    +0.150 HD
BRANCH  42  46
ATOM     46  CA  ASN A   1      26.465   9.592  11.893  0.00  0.00    +0.154 C 
BRANCH  46  47
ATOM     47  N   ASN A   1      27.714   9.025  11.407  0.00  0.00    -0.238 NA
ATOM     48  H   ASN A   1      28.319   8.508  12.076  0.00  0.00    +0.142 HD
ENDBRANCH  46  47
BRANCH  46  49
ATOM     49  CB  ASN A   1      25.969   8.638  12.979  0.00  0.00    +0.111 C 
BRANCH  49  50
ATOM     50  CG  ASN A   1      24.683   9.070  13.603  0.00  0.00    +0.221 C 
ATOM     51  ND2 ASN A   1      24.153   8.227  14.489  0.00  0.00    -0.329 N 
ATOM     52 HD21 ASN A   1      23.266   8.472  14.974  0.00  0.00    +0.145 HD
ATOM     53 HD22 ASN A   1      24.626   7.324  14.695  0.00  0.00    +0.145 HD
ATOM     54  OD1 ASN A   1      24.167  10.149  13.321  0.00  0.00    -0.275 OA
ENDBRANCH  49  50
ENDBRANCH  46  49
ENDBRANCH  42  46
ENDBRANCH  41  44
BRANCH  41  55
ATOM     55  CB  PHE A   2      26.480  14.459  11.303  0.00  0.00    +0.055 C 
BRANCH  55  56
ATOM     56  CG  PHE A   2      27.574  14.534  10.297  0.00  0.00    -0.020 A 
ATOM     57  CD2 PHE A   2      28.334  13.405   9.970  0.00  0.00    -0.004 A 
ATOM     58  CE2 PHE A   2      29.341  13.465   9.026  0.00  0.00    -0.000 A 
ATOM     59  CZ  PHE A   2      29.519  14.640   8.295  0.00  0.00    -0.000 A 
ATOM     60  CE1 PHE A   2      28.714  15.750   8.560  0.00  0.00    -0.000 A 
ATOM     61  CD1 PHE A   2      27.757  15.701   9.562  0.00  0.00    -0.004 A 
ENDBRANCH  55  56
ENDBRANCH  41  55
ENDBRANCH  37  41
ENDBRANCH  36  38
BRANCH  36  62
ATOM     62  CB  ASP A   3      26.158  13.116  16.814  0.00  0.00    +0.143 C 
BRANCH  62  63
ATOM     63  CG  ASP A   3      25.471  13.097  18.146  0.00  0.00    +0.367 C 
ATOM     64  OD2 ASP A   3      25.985  12.375  19.026  0.00  0.00    -0.246 OA
ATOM     65  OD1 ASP A   3      24.429  13.769  18.318  0.00  0.00    -0.246 OA
ENDBRANCH  62  63
ENDBRANCH  36  62
ENDBRANCH  32  36
ENDBRANCH   1  34
BRANCH   1  66
ATOM     66  CB  THR A   4      23.991  18.739  16.627  0.00  0.00    +0.137 C 
ATOM     67  CG2 THR A   4      24.217  18.961  15.139  0.00  0.00    +0.034 C 
BRANCH  66  68
ATOM     68  OG1 THR A   4      22.670  18.243  16.851  0.00  0.00    -0.382 OA
ATOM     69  HG1 THR A   4      22.527  18.117  17.822  0.00  0.00    +0.210 HD
ENDBRANCH  66  68
ENDBRANCH   1  66
TORSDOF 28
REMARK  Name = ../refined-set-2016/2web/2web_pocket.pdb
REMARK  255 active torsions:
REMARK  status: ('A' for Active; 'I' for Inactive)
REMARK    1  A    between atoms: _1  and  _3
REMARK    2  A    between atoms: _3  and  _4
REMARK    3  A    between atoms: _3  and  _6
REMARK    4  A    between atoms: _6  and  _7
REMARK    5  A    between atoms: _10  and  _12
REMARK    6  A    between atoms: _12  and  _13
REMARK    7  A    between atoms: _12  and  _15
REMARK    8  A    between atoms: _15  and  _16
REMARK    9  A    between atoms: _16  and  _17
REMARK   10  A    between atoms: _20  and  _22
REMARK   11  A    between atoms: _22  and  _23
REMARK   12  A    between atoms: _22  and  _25
REMARK   13  A    between atoms: _25  and  _26
REMARK   14  A    between atoms: _26  and  _27
REMARK   15  A    between atoms: _30  and  _32
REMARK   16  A    between atoms: _32  and  _33
REMARK   17  A    between atoms: _32  and  _35
REMARK   18  A    between atoms: _35  and  _36
REMARK   19  A    between atoms: _41  and  _42
REMARK   20  A    between atoms: _44  and  _46
REMARK   21  A    between atoms: _46  and  _47
REMARK   22  A    between atoms: _46  and  _49
REMARK   23  A    between atoms: _49  and  _50
REMARK   24  A    between atoms: _55  and  _57
REMARK   25  A    between atoms: _57  and  _58
REMARK   26  A    between atoms: _57  and  _60
REMARK   27  A    between atoms: _60  and  _61
REMARK   28  A    between atoms: _67  and  _69
REMARK   29  A    between atoms: _69  and  _70
REMARK   30  A    between atoms: _69  and  _72
REMARK   31  A    between atoms: _72  and  _73
REMARK   32  A    between atoms: _76  and  _78
REMARK   33  A    between atoms: _78  and  _79
REMARK   34  A    between atoms: _78  and  _81
REMARK   35  A    between atoms: _81  and  _82
REMARK   36  A    between atoms: _85  and  _87
REMARK   37  A    between atoms: _87  and  _88
REMARK   38  A    between atoms: _90  and  _92
REMARK   39  A    between atoms: _92  and  _93
REMARK   40  A    between atoms: _92  and  _95
REMARK   41  A    between atoms: _95  and  _96
REMARK   42  A    between atoms: _98  and  _100
REMARK   43  A    between atoms: _100  and  _101
REMARK   44  A    between atoms: _104  and  _106
REMARK   45  A    between atoms: _106  and  _107
REMARK   46  A    between atoms: _106  and  _109
REMARK   47  A    between atoms: _109  and  _110
REMARK   48  A    between atoms: _113  and  _115
REMARK   49  A    between atoms: _115  and  _116
REMARK   50  A    between atoms: _115  and  _118
REMARK   51  A    between atoms: _118  and  _119
REMARK   52  A    between atoms: _129  and  _131
REMARK   53  A    between atoms: _131  and  _132
REMARK   54  A    between atoms: _131  and  _134
REMARK   55  A    between atoms: _134  and  _135
REMARK   56  A    between atoms: _138  and  _140
REMARK   57  A    between atoms: _140  and  _141
REMARK   58  A    between atoms: _140  and  _143
REMARK   59  A    between atoms: _143  and  _144
REMARK   60  A    between atoms: _146  and  _148
REMARK   61  A    between atoms: _148  and  _149
REMARK   62  A    between atoms: _148  and  _151
REMARK   63  A    between atoms: _151  and  _152
REMARK   64  A    between atoms: _157  and  _158
REMARK   65  A    between atoms: _160  and  _162
REMARK   66  A    between atoms: _162  and  _163
REMARK   67  A    between atoms: _165  and  _167
REMARK   68  A    between atoms: _167  and  _168
REMARK   69  A    between atoms: _167  and  _170
REMARK   70  A    between atoms: _170  and  _171
REMARK   71  A    between atoms: _174  and  _176
REMARK   72  A    between atoms: _176  and  _177
REMARK   73  A    between atoms: _179  and  _181
REMARK   74  A    between atoms: _181  and  _182
REMARK   75  A    between atoms: _181  and  _184
REMARK   76  A    between atoms: _184  and  _185
REMARK   77  A    between atoms: _187  and  _189
REMARK   78  A    between atoms: _189  and  _190
REMARK   79  A    between atoms: _189  and  _192
REMARK   80  A    between atoms: _192  and  _193
REMARK   81  A    between atoms: _195  and  _197
REMARK   82  A    between atoms: _197  and  _198
REMARK   83  A    between atoms: _197  and  _200
REMARK   84  A    between atoms: _200  and  _201
REMARK   85  A    between atoms: _203  and  _205
REMARK   86  A    between atoms: _205  and  _206
REMARK   87  A    between atoms: _209  and  _211
REMARK   88  A    between atoms: _211  and  _212
REMARK   89  A    between atoms: _211  and  _214
REMARK   90  A    between atoms: _214  and  _215
REMARK   91  A    between atoms: _215  and  _216
REMARK   92  A    between atoms: _221  and  _223
REMARK   93  A    between atoms: _223  and  _224
REMARK   94  A    between atoms: _223  and  _226
REMARK   95  A    between atoms: _226  and  _227
REMARK   96  A    between atoms: _233  and  _235
REMARK   97  A    between atoms: _235  and  _236
REMARK   98  A    between atoms: _235  and  _238
REMARK   99  A    between atoms: _238  and  _239
REMARK  100  A    between atoms: _239  and  _240
REMARK  101  A    between atoms: _245  and  _247
REMARK  102  A    between atoms: _247  and  _248
REMARK  103  A    between atoms: _247  and  _250
REMARK  104  A    between atoms: _250  and  _251
REMARK  105  A    between atoms: _251  and  _252
REMARK  106  A    between atoms: _257  and  _259
REMARK  107  A    between atoms: _259  and  _260
REMARK  108  A    between atoms: _259  and  _262
REMARK  109  A    between atoms: _262  and  _263
REMARK  110  A    between atoms: _266  and  _268
REMARK  111  A    between atoms: _268  and  _269
REMARK  112  A    between atoms: _268  and  _271
REMARK  113  A    between atoms: _271  and  _272
REMARK  114  A    between atoms: _275  and  _277
REMARK  115  A    between atoms: _277  and  _278
REMARK  116  A    between atoms: _277  and  _280
REMARK  117  A    between atoms: _280  and  _281
REMARK  118  A    between atoms: _286  and  _288
REMARK  119  A    between atoms: _288  and  _289
REMARK  120  A    between atoms: _288  and  _291
REMARK  121  A    between atoms: _291  and  _292
REMARK  122  A    between atoms: _297  and  _299
REMARK  123  A    between atoms: _299  and  _300
REMARK  124  A    between atoms: _302  and  _304
REMARK  125  A    between atoms: _304  and  _305
REMARK  126  A    between atoms: _304  and  _307
REMARK  127  A    between atoms: _307  and  _308
REMARK  128  A    between atoms: _311  and  _313
REMARK  129  A    between atoms: _313  and  _314
REMARK  130  A    between atoms: _316  and  _318
REMARK  131  A    between atoms: _318  and  _319
REMARK  132  A    between atoms: _318  and  _321
REMARK  133  A    between atoms: _321  and  _322
REMARK  134  A    between atoms: _325  and  _327
REMARK  135  A    between atoms: _327  and  _328
REMARK  136  A    between atoms: _331  and  _333
REMARK  137  A    between atoms: _333  and  _334
REMARK  138  A    between atoms: _333  and  _336
REMARK  139  A    between atoms: _336  and  _337
REMARK  140  A    between atoms: _340  and  _342
REMARK  141  A    between atoms: _342  and  _343
REMARK  142  A    between atoms: _342  and  _345
REMARK  143  A    between atoms: _345  and  _346
REMARK  144  A    between atoms: _349  and  _351
REMARK  145  A    between atoms: _351  and  _352
REMARK  146  A    between atoms: _351  and  _354
REMARK  147  A    between atoms: _354  and  _355
REMARK  148  A    between atoms: _355  and  _356
REMARK  149  A    between atoms: _361  and  _363
REMARK  150  A    between atoms: _363  and  _364
REMARK  151  A    between atoms: _363  and  _366
REMARK  152  A    between atoms: _366  and  _367
REMARK  153  A    between atoms: _373  and  _375
REMARK  154  A    between atoms: _375  and  _376
REMARK  155  A    between atoms: _375  and  _378
REMARK  156  A    between atoms: _378  and  _379
REMARK  157  A    between atoms: _382  and  _384
REMARK  158  A    between atoms: _384  and  _385
REMARK  159  A    between atoms: _388  and  _390
REMARK  160  A    between atoms: _390  and  _391
REMARK  161  A    between atoms: _390  and  _393
REMARK  162  A    between atoms: _393  and  _394
REMARK  163  A    between atoms: _397  and  _399
REMARK  164  A    between atoms: _399  and  _400
REMARK  165  A    between atoms: _399  and  _402
REMARK  166  A    between atoms: _402  and  _403
REMARK  167  A    between atoms: _406  and  _408
REMARK  168  A    between atoms: _408  and  _409
REMARK  169  A    between atoms: _411  and  _413
REMARK  170  A    between atoms: _413  and  _414
REMARK  171  A    between atoms: _413  and  _416
REMARK  172  A    between atoms: _416  and  _417
REMARK  173  A    between atoms: _420  and  _422
REMARK  174  A    between atoms: _422  and  _423
REMARK  175  A    between atoms: _422  and  _425
REMARK  176  A    between atoms: _425  and  _426
REMARK  177  A    between atoms: _429  and  _431
REMARK  178  A    between atoms: _431  and  _432
REMARK  179  A    between atoms: _431  and  _434
REMARK  180  A    between atoms: _434  and  _435
REMARK  181  A    between atoms: _438  and  _440
REMARK  182  A    between atoms: _440  and  _441
REMARK  183  A    between atoms: _440  and  _443
REMARK  184  A    between atoms: _443  and  _444
REMARK  185  A    between atoms: _447  and  _449
REMARK  186  A    between atoms: _449  and  _450
REMARK  187  A    between atoms: _449  and  _452
REMARK  188  A    between atoms: _452  and  _453
REMARK  189  A    between atoms: _456  and  _458
REMARK  190  A    between atoms: _458  and  _459
REMARK  191  A    between atoms: _458  and  _461
REMARK  192  A    between atoms: _461  and  _462
REMARK  193  A    between atoms: _464  and  _466
REMARK  194  A    between atoms: _466  and  _467
REMARK  195  A    between atoms: _466  and  _469
REMARK  196  A    between atoms: _469  and  _470
REMARK  197  A    between atoms: _475  and  _477
REMARK  198  A    between atoms: _477  and  _478
REMARK  199  A    between atoms: _477  and  _480
REMARK  200  A    between atoms: _480  and  _481
REMARK  201  A    between atoms: _483  and  _485
REMARK  202  A    between atoms: _485  and  _486
REMARK  203  A    between atoms: _485  and  _488
REMARK  204  A    between atoms: _488  and  _489
REMARK  205  A    between atoms: _492  and  _494
REMARK  206  A    between atoms: _494  and  _495
REMARK  207  A    between atoms: _494  and  _497
REMARK  208  A    between atoms: _497  and  _498
REMARK  209  A    between atoms: _504  and  _506
REMARK  210  A    between atoms: _506  and  _507
REMARK  211  A    between atoms: _506  and  _509
REMARK  212  A    between atoms: _509  and  _510
REMARK  213  A    between atoms: _512  and  _514
REMARK  214  A    between atoms: _514  and  _515
REMARK  215  A    between atoms: _514  and  _517
REMARK  216  A    between atoms: _517  and  _518
REMARK  217  A    between atoms: _521  and  _523
REMARK  218  A    between atoms: _523  and  _524
REMARK  219  A    between atoms: _523  and  _526
REMARK  220  A    between atoms: _526  and  _527
REMARK  221  A    between atoms: _533  and  _535
REMARK  222  A    between atoms: _535  and  _536
REMARK  223  A    between atoms: _538  and  _540
REMARK  224  A    between atoms: _540  and  _541
REMARK  225  A    between atoms: _540  and  _543
REMARK  226  A    between atoms: _543  and  _544
REMARK  227  A    between atoms: _547  and  _549
REMARK  228  A    between atoms: _549  and  _550
REMARK  229  A    between atoms: _552  and  _554
REMARK  230  A    between atoms: _554  and  _555
REMARK  231  A    between atoms: _554  and  _557
REMARK  232  A    between atoms: _557  and  _558
REMARK  233  A    between atoms: _563  and  _564
REMARK  234  A    between atoms: _566  and  _568
REMARK  235  A    between atoms: _568  and  _569
REMARK  236  A    between atoms: _568  and  _571
REMARK  237  A    between atoms: _571  and  _572
REMARK  238  A    between atoms: _575  and  _577
REMARK  239  A    between atoms: _577  and  _578
REMARK  240  A    between atoms: _577  and  _580
REMARK  241  A    between atoms: _580  and  _581
REMARK  242  A    between atoms: _584  and  _586
REMARK  243  A    between atoms: _586  and  _587
REMARK  244  A    between atoms: _586  and  _589
REMARK  245  A    between atoms: _592  and  _594
REMARK  246  A    between atoms: _594  and  _595
REMARK  247  A    between atoms: _594  and  _597
REMARK  248  A    between atoms: _597  and  _598
REMARK  249  A    between atoms: _598  and  _599
REMARK  250  A    between atoms: _605  and  _606
REMARK  251  A    between atoms: _611  and  _613
REMARK  252  A    between atoms: _613  and  _614
REMARK  253  A    between atoms: _613  and  _616
REMARK  254  A    between atoms: _616  and  _617
REMARK  255  A    between atoms: _617  and  _618
REMARK                            x       y       z     vdW  Elec       q    Type
REMARK                         _______ _______ _______ _____ _____    ______ ____
ROOT
ATOM      1  CG  TRP A   1      33.562   7.482  18.216  0.00  0.00    -0.002 A 
ATOM      2  CD1 TRP A   1      32.518   8.099  18.847  0.00  0.00    +0.068 A 
ATOM      3  NE1 TRP A   1      31.399   7.277  18.855  0.00  0.00    -0.352 N 
ATOM      4  HE1 TRP A   1      30.463   7.530  19.230  0.00  0.00    +0.166 HD
ATOM      5  CE2 TRP A   1      31.734   6.076  18.286  0.00  0.00    +0.056 A 
ATOM      6  CZ2 TRP A   1      30.958   4.918  18.102  0.00  0.00    +0.017 A 
ATOM      7  CH2 TRP A   1      31.568   3.834  17.517  0.00  0.00    +0.001 A 
ATOM      8  CZ3 TRP A   1      32.896   3.900  17.062  0.00  0.00    +0.000 A 
ATOM      9  CE3 TRP A   1      33.676   5.056  17.250  0.00  0.00    +0.001 A 
ATOM     10  CD2 TRP A   1      33.096   6.155  17.893  0.00  0.00    +0.013 A 
ENDROOT
BRANCH   1  11
ATOM     11  CB  TRP A   1      34.960   8.029  18.018  0.00  0.00    +0.053 C 
BRANCH  11  12
ATOM     12  CA  TRP A   1      35.273   8.607  16.642  0.00  0.00    +0.137 C 
BRANCH  12  13
ATOM     13  N   TRP A   1      34.619   9.893  16.404  0.00  0.00    -0.239 NA
ATOM     14  H   TRP A   1      33.591   9.950  16.255  0.00  0.00    +0.142 HD
ENDBRANCH  12  13
BRANCH  12  15
ATOM     15  C   TRP A   1      34.914   7.642  15.538  0.00  0.00    +0.224 C 
ATOM     16  O   TRP A   1      33.825   7.725  15.010  0.00  0.00    -0.287 OA
ENDBRANCH  12  15
ENDBRANCH  11  12
ENDBRANCH   1  11
TORSDOF 4
REMARK  Name = ../refined-set-2016/2web/2web_pocket.pdb
REMARK  255 active torsions:
REMARK  status: ('A' for Active; 'I' for Inactive)
REMARK    1  A    between atoms: _1  and  _3
REMARK    2  A    between atoms: _3  and  _4
REMARK    3  A    between atoms: _3  and  _6
REMARK    4  A    between atoms: _6  and  _7
REMARK    5  A    between atoms: _10  and  _12
REMARK    6  A    between atoms: _12  and  _13
REMARK    7  A    between atoms: _12  and  _15
REMARK    8  A    between atoms: _15  and  _16
REMARK    9  A    between atoms: _16  and  _17
REMARK   10  A    between atoms: _20  and  _22
REMARK   11  A    between atoms: _22  and  _23
REMARK   12  A    between atoms: _22  and  _25
REMARK   13  A    between atoms: _25  and  _26
REMARK   14  A    between atoms: _26  and  _27
REMARK   15  A    between atoms: _30  and  _32
REMARK   16  A    between atoms: _32  and  _33
REMARK   17  A    between atoms: _32  and  _35
REMARK   18  A    between atoms: _35  and  _36
REMARK   19  A    between atoms: _41  and  _42
REMARK   20  A    between atoms: _44  and  _46
REMARK   21  A    between atoms: _46  and  _47
REMARK   22  A    between atoms: _46  and  _49
REMARK   23  A    between atoms: _49  and  _50
REMARK   24  A    between atoms: _55  and  _57
REMARK   25  A    between atoms: _57  and  _58
REMARK   26  A    between atoms: _57  and  _60
REMARK   27  A    between atoms: _60  and  _61
REMARK   28  A    between atoms: _67  and  _69
REMARK   29  A    between atoms: _69  and  _70
REMARK   30  A    between atoms: _69  and  _72
REMARK   31  A    between atoms: _72  and  _73
REMARK   32  A    between atoms: _76  and  _78
REMARK   33  A    between atoms: _78  and  _79
REMARK   34  A    between atoms: _78  and  _81
REMARK   35  A    between atoms: _81  and  _82
REMARK   36  A    between atoms: _85  and  _87
REMARK   37  A    between atoms: _87  and  _88
REMARK   38  A    between atoms: _90  and  _92
REMARK   39  A    between atoms: _92  and  _93
REMARK   40  A    between atoms: _92  and  _95
REMARK   41  A    between atoms: _95  and  _96
REMARK   42  A    between atoms: _98  and  _100
REMARK   43  A    between atoms: _100  and  _101
REMARK   44  A    between atoms: _104  and  _106
REMARK   45  A    between atoms: _106  and  _107
REMARK   46  A    between atoms: _106  and  _109
REMARK   47  A    between atoms: _109  and  _110
REMARK   48  A    between atoms: _113  and  _115
REMARK   49  A    between atoms: _115  and  _116
REMARK   50  A    between atoms: _115  and  _118
REMARK   51  A    between atoms: _118  and  _119
REMARK   52  A    between atoms: _129  and  _131
REMARK   53  A    between atoms: _131  and  _132
REMARK   54  A    between atoms: _131  and  _134
REMARK   55  A    between atoms: _134  and  _135
REMARK   56  A    between atoms: _138  and  _140
REMARK   57  A    between atoms: _140  and  _141
REMARK   58  A    between atoms: _140  and  _143
REMARK   59  A    between atoms: _143  and  _144
REMARK   60  A    between atoms: _146  and  _148
REMARK   61  A    between atoms: _148  and  _149
REMARK   62  A    between atoms: _148  and  _151
REMARK   63  A    between atoms: _151  and  _152
REMARK   64  A    between atoms: _157  and  _158
REMARK   65  A    between atoms: _160  and  _162
REMARK   66  A    between atoms: _162  and  _163
REMARK   67  A    between atoms: _165  and  _167
REMARK   68  A    between atoms: _167  and  _168
REMARK   69  A    between atoms: _167  and  _170
REMARK   70  A    between atoms: _170  and  _171
REMARK   71  A    between atoms: _174  and  _176
REMARK   72  A    between atoms: _176  and  _177
REMARK   73  A    between atoms: _179  and  _181
REMARK   74  A    between atoms: _181  and  _182
REMARK   75  A    between atoms: _181  and  _184
REMARK   76  A    between atoms: _184  and  _185
REMARK   77  A    between atoms: _187  and  _189
REMARK   78  A    between atoms: _189  and  _190
REMARK   79  A    between atoms: _189  and  _192
REMARK   80  A    between atoms: _192  and  _193
REMARK   81  A    between atoms: _195  and  _197
REMARK   82  A    between atoms: _197  and  _198
REMARK   83  A    between atoms: _197  and  _200
REMARK   84  A    between atoms: _200  and  _201
REMARK   85  A    between atoms: _203  and  _205
REMARK   86  A    between atoms: _205  and  _206
REMARK   87  A    between atoms: _209  and  _211
REMARK   88  A    between atoms: _211  and  _212
REMARK   89  A    between atoms: _211  and  _214
REMARK   90  A    between atoms: _214  and  _215
REMARK   91  A    between atoms: _215  and  _216
REMARK   92  A    between atoms: _221  and  _223
REMARK   93  A    between atoms: _223  and  _224
REMARK   94  A    between atoms: _223  and  _226
REMARK   95  A    between atoms: _226  and  _227
REMARK   96  A    between atoms: _233  and  _235
REMARK   97  A    between atoms: _235  and  _236
REMARK   98  A    between atoms: _235  and  _238
REMARK   99  A    between atoms: _238  and  _239
REMARK  100  A    between atoms: _239  and  _240
REMARK  101  A    between atoms: _245  and  _247
REMARK  102  A    between atoms: _247  and  _248
REMARK  103  A    between atoms: _247  and  _250
REMARK  104  A    between atoms: _250  and  _251
REMARK  105  A    between atoms: _251  and  _252
REMARK  106  A    between atoms: _257  and  _259
REMARK  107  A    between atoms: _259  and  _260
REMARK  108  A    between atoms: _259  and  _262
REMARK  109  A    between atoms: _262  and  _263
REMARK  110  A    between atoms: _266  and  _268
REMARK  111  A    between atoms: _268  and  _269
REMARK  112  A    between atoms: _268  and  _271
REMARK  113  A    between atoms: _271  and  _272
REMARK  114  A    between atoms: _275  and  _277
REMARK  115  A    between atoms: _277  and  _278
REMARK  116  A    between atoms: _277  and  _280
REMARK  117  A    between atoms: _280  and  _281
REMARK  118  A    between atoms: _286  and  _288
REMARK  119  A    between atoms: _288  and  _289
REMARK  120  A    between atoms: _288  and  _291
REMARK  121  A    between atoms: _291  and  _292
REMARK  122  A    between atoms: _297  and  _299
REMARK  123  A    between atoms: _299  and  _300
REMARK  124  A    between atoms: _302  and  _304
REMARK  125  A    between atoms: _304  and  _305
REMARK  126  A    between atoms: _304  and  _307
REMARK  127  A    between atoms: _307  and  _308
REMARK  128  A    between atoms: _311  and  _313
REMARK  129  A    between atoms: _313  and  _314
REMARK  130  A    between atoms: _316  and  _318
REMARK  131  A    between atoms: _318  and  _319
REMARK  132  A    between atoms: _318  and  _321
REMARK  133  A    between atoms: _321  and  _322
REMARK  134  A    between atoms: _325  and  _327
REMARK  135  A    between atoms: _327  and  _328
REMARK  136  A    between atoms: _331  and  _333
REMARK  137  A    between atoms: _333  and  _334
REMARK  138  A    between atoms: _333  and  _336
REMARK  139  A    between atoms: _336  and  _337
REMARK  140  A    between atoms: _340  and  _342
REMARK  141  A    between atoms: _342  and  _343
REMARK  142  A    between atoms: _342  and  _345
REMARK  143  A    between atoms: _345  and  _346
REMARK  144  A    between atoms: _349  and  _351
REMARK  145  A    between atoms: _351  and  _352
REMARK  146  A    between atoms: _351  and  _354
REMARK  147  A    between atoms: _354  and  _355
REMARK  148  A    between atoms: _355  and  _356
REMARK  149  A    between atoms: _361  and  _363
REMARK  150  A    between atoms: _363  and  _364
REMARK  151  A    between atoms: _363  and  _366
REMARK  152  A    between atoms: _366  and  _367
REMARK  153  A    between atoms: _373  and  _375
REMARK  154  A    between atoms: _375  and  _376
REMARK  155  A    between atoms: _375  and  _378
REMARK  156  A    between atoms: _378  and  _379
REMARK  157  A    between atoms: _382  and  _384
REMARK  158  A    between atoms: _384  and  _385
REMARK  159  A    between atoms: _388  and  _390
REMARK  160  A    between atoms: _390  and  _391
REMARK  161  A    between atoms: _390  and  _393
REMARK  162  A    between atoms: _393  and  _394
REMARK  163  A    between atoms: _397  and  _399
REMARK  164  A    between atoms: _399  and  _400
REMARK  165  A    between atoms: _399  and  _402
REMARK  166  A    between atoms: _402  and  _403
REMARK  167  A    between atoms: _406  and  _408
REMARK  168  A    between atoms: _408  and  _409
REMARK  169  A    between atoms: _411  and  _413
REMARK  170  A    between atoms: _413  and  _414
REMARK  171  A    between atoms: _413  and  _416
REMARK  172  A    between atoms: _416  and  _417
REMARK  173  A    between atoms: _420  and  _422
REMARK  174  A    between atoms: _422  and  _423
REMARK  175  A    between atoms: _422  and  _425
REMARK  176  A    between atoms: _425  and  _426
REMARK  177  A    between atoms: _429  and  _431
REMARK  178  A    between atoms: _431  and  _432
REMARK  179  A    between atoms: _431  and  _434
REMARK  180  A    between atoms: _434  and  _435
REMARK  181  A    between atoms: _438  and  _440
REMARK  182  A    between atoms: _440  and  _441
REMARK  183  A    between atoms: _440  and  _443
REMARK  184  A    between atoms: _443  and  _444
REMARK  185  A    between atoms: _447  and  _449
REMARK  186  A    between atoms: _449  and  _450
REMARK  187  A    between atoms: _449  and  _452
REMARK  188  A    between atoms: _452  and  _453
REMARK  189  A    between atoms: _456  and  _458
REMARK  190  A    between atoms: _458  and  _459
REMARK  191  A    between atoms: _458  and  _461
REMARK  192  A    between atoms: _461  and  _462
REMARK  193  A    between atoms: _464  and  _466
REMARK  194  A    between atoms: _466  and  _467
REMARK  195  A    between atoms: _466  and  _469
REMARK  196  A    between atoms: _469  and  _470
REMARK  197  A    between atoms: _475  and  _477
REMARK  198  A    between atoms: _477  and  _478
REMARK  199  A    between atoms: _477  and  _480
REMARK  200  A    between atoms: _480  and  _481
REMARK  201  A    between atoms: _483  and  _485
REMARK  202  A    between atoms: _485  and  _486
REMARK  203  A    between atoms: _485  and  _488
REMARK  204  A    between atoms: _488  and  _489
REMARK  205  A    between atoms: _492  and  _494
REMARK  206  A    between atoms: _494  and  _495
REMARK  207  A    between atoms: _494  and  _497
REMARK  208  A    between atoms: _497  and  _498
REMARK  209  A    between atoms: _504  and  _506
REMARK  210  A    between atoms: _506  and  _507
REMARK  211  A    between atoms: _506  and  _509
REMARK  212  A    between atoms: _509  and  _510
REMARK  213  A    between atoms: _512  and  _514
REMARK  214  A    between atoms: _514  and  _515
REMARK  215  A    between atoms: _514  and  _517
REMARK  216  A    between atoms: _517  and  _518
REMARK  217  A    between atoms: _521  and  _523
REMARK  218  A    between atoms: _523  and  _524
REMARK  219  A    between atoms: _523  and  _526
REMARK  220  A    between atoms: _526  and  _527
REMARK  221  A    between atoms: _533  and  _535
REMARK  222  A    between atoms: _535  and  _536
REMARK  223  A    between atoms: _538  and  _540
REMARK  224  A    between atoms: _540  and  _541
REMARK  225  A    between atoms: _540  and  _543
REMARK  226  A    between atoms: _543  and  _544
REMARK  227  A    between atoms: _547  and  _549
REMARK  228  A    between atoms: _549  and  _550
REMARK  229  A    between atoms: _552  and  _554
REMARK  230  A    between atoms: _554  and  _555
REMARK  231  A    between atoms: _554  and  _557
REMARK  232  A    between atoms: _557  and  _558
REMARK  233  A    between atoms: _563  and  _564
REMARK  234  A    between atoms: _566  and  _568
REMARK  235  A    between atoms: _568  and  _569
REMARK  236  A    between atoms: _568  and  _571
REMARK  237  A    between atoms: _571  and  _572
REMARK  238  A    between atoms: _575  and  _577
REMARK  239  A    between atoms: _577  and  _578
REMARK  240  A    between atoms: _577  and  _580
REMARK  241  A    between atoms: _580  and  _581
REMARK  242  A    between atoms: _584  and  _586
REMARK  243  A    between atoms: _586  and  _587
REMARK  244  A    between atoms: _586  and  _589
REMARK  245  A    between atoms: _592  and  _594
REMARK  246  A    between atoms: _594  and  _595
REMARK  247  A    between atoms: _594  and  _597
REMARK  248  A    between atoms: _597  and  _598
REMARK  249  A    between atoms: _598  and  _599
REMARK  250  A    between atoms: _605  and  _606
REMARK  251  A    between atoms: _611  and  _613
REMARK  252  A    between atoms: _613  and  _614
REMARK  253  A    between atoms: _613  and  _616
REMARK  254  A    between atoms: _616  and  _617
REMARK  255  A    between atoms: _617  and  _618
REMARK                            x       y       z     vdW  Elec       q    Type
REMARK                         _______ _______ _______ _____ _____    ______ ____
ROOT
ATOM      1  C   TYR A   3      24.464   8.010  26.288  0.00  0.00    +0.241 C 
ATOM      2  O   TYR A   3      24.395   7.146  27.172  0.00  0.00    -0.273 OA
ATOM      3  N   GLY A   4      23.442   8.773  25.907  0.00  0.00    -0.295 N 
ATOM      4  H   GLY A   4      23.577   9.397  25.086  0.00  0.00    +0.150 HD
ENDROOT
BRANCH   3   5
ATOM      5  CA  GLY A   4      22.146   8.786  26.571  0.00  0.00    +0.176 C 
BRANCH   5   6
ATOM      6  C   GLY A   4      21.487   7.417  26.709  0.00  0.00    +0.243 C 
ATOM      7  O   GLY A   4      20.857   7.138  27.732  0.00  0.00    -0.273 OA
ATOM      8  N   ASP A   5      21.588   6.581  25.680  0.00  0.00    -0.296 N 
ATOM      9  H   ASP A   5      22.100   6.880  24.826  0.00  0.00    +0.150 HD
BRANCH   8  10
ATOM     10  CA  ASP A   5      20.989   5.244  25.731  0.00  0.00    +0.160 C 
BRANCH  10  11
ATOM     11  C   ASP A   5      21.868   4.224  26.468  0.00  0.00    +0.241 C 
ATOM     12  N   GLY A   6      22.975   4.695  27.039  0.00  0.00    -0.295 N 
ATOM     13  H   GLY A   6      23.180   5.713  26.975  0.00  0.00    +0.150 HD
ATOM     14  O   ASP A   5      21.546   3.033  26.513  0.00  0.00    -0.273 OA
BRANCH  12  15
ATOM     15  CA  GLY A   6      23.911   3.831  27.752  0.00  0.00    +0.176 C 
BRANCH  15  16
ATOM     16  C   GLY A   6      25.021   3.229  26.885  0.00  0.00    +0.243 C 
ATOM     17  O   GLY A   6      25.945   2.611  27.412  0.00  0.00    -0.273 OA
ATOM     18  N   SER A   7      24.971   3.394  25.567  0.00  0.00    -0.295 N 
ATOM     19  H   SER A   7      24.185   3.916  25.130  0.00  0.00    +0.150 HD
BRANCH  18  20
ATOM     20  CA  SER A   7      26.035   2.832  24.743  0.00  0.00    +0.178 C 
BRANCH  20  21
ATOM     21  C   SER A   7      27.355   3.527  25.099  0.00  0.00    +0.243 C 
ATOM     22  O   SER A   7      27.356   4.606  25.682  0.00  0.00    -0.273 OA
ATOM     23  N   SER A   8      28.474   2.939  24.699  0.00  0.00    -0.296 N 
ATOM     24  H   SER A   8      28.430   2.041  24.176  0.00  0.00    +0.150 HD
BRANCH  23  25
ATOM     25  CA  SER A   8      29.761   3.546  24.989  0.00  0.00    +0.166 C 
BRANCH  25  26
ATOM     26  C   SER A   8      30.846   3.082  24.021  0.00  0.00    +0.229 C 
ATOM     27  O   SER A   8      30.675   2.102  23.279  0.00  0.00    -0.286 OA
ENDBRANCH  25  26
BRANCH  25  28
ATOM     28  CB  SER A   8      30.188   3.240  26.421  0.00  0.00    +0.165 C 
BRANCH  28  29
ATOM     29  OG  SER A   8      30.308   1.838  26.608  0.00  0.00    -0.380 OA
ATOM     30  H   SER A   8      29.435   1.407  26.431  0.00  0.00    +0.211 HD
ENDBRANCH  28  29
ENDBRANCH  25  28
ENDBRANCH  23  25
ENDBRANCH  20  21
BRANCH  20  31
ATOM     31  CB  SER A   7      25.748   3.028  23.251  0.00  0.00    +0.166 C 
BRANCH  31  32
ATOM     32  OG  SER A   7      25.500   4.392  22.985  0.00  0.00    -0.380 OA
ATOM     33  H   SER A   7      24.717   4.693  23.511  0.00  0.00    +0.211 HD
ENDBRANCH  31  32
ENDBRANCH  20  31
ENDBRANCH  18  20
ENDBRANCH  15  16
ENDBRANCH  12  15
ENDBRANCH  10  11
BRANCH  10  34
ATOM     34  CB  ASP A   5      20.657   4.741  24.326  0.00  0.00    +0.143 C 
BRANCH  34  35
ATOM     35  CG  ASP A   5      21.892   4.375  23.543  0.00  0.00    +0.367 C 
ATOM     36  OD2 ASP A   5      23.009   4.762  23.967  0.00  0.00    -0.246 OA
ATOM     37  OD1 ASP A   5      21.745   3.652  22.534  0.00  0.00    -0.246 OA
ENDBRANCH  34  35
ENDBRANCH  10  34
ENDBRANCH   8  10
ENDBRANCH   5   6
ENDBRANCH   3   5
BRANCH   1  38
ATOM     38  CA  TYR A   3      25.721   8.177  25.455  0.00  0.00    +0.153 C 
BRANCH  38  41
ATOM     39  C   SER A   2      27.763   8.154  26.782  0.00  0.00    +0.243 C 
ATOM     40  O   SER A   2      27.673   9.350  27.066  0.00  0.00    -0.273 OA
ATOM     41  N   TYR A   3      26.895   7.520  26.002  0.00  0.00    -0.297 N 
ATOM     42  H   TYR A   3      27.062   6.519  25.775  0.00  0.00    +0.150 HD
BRANCH  39  43
ATOM     43  CA  SER A   2      28.960   7.325  27.242  0.00  0.00    +0.178 C 
BRANCH  43  45
ATOM     44  C   ILE A   1      31.195   7.441  26.204  0.00  0.00    +0.238 C 
ATOM     45  N   SER A   2      30.186   8.017  26.855  0.00  0.00    -0.295 N 
ATOM     46  H   SER A   2      30.277   9.023  27.103  0.00  0.00    +0.150 HD
ATOM     47  O   ILE A   1      31.230   6.252  25.873  0.00  0.00    -0.274 OA
BRANCH  44  48
ATOM     48  CA  ILE A   1      32.357   8.362  25.895  0.00  0.00    +0.145 C 
BRANCH  48  49
ATOM     49  N   ILE A   1      33.618   7.640  25.928  0.00  0.00    -0.238 NA
ATOM     50  H   ILE A   1      33.714   6.729  25.436  0.00  0.00    +0.142 HD
ENDBRANCH  48  49
BRANCH  48  51
ATOM     51  CB  ILE A   1      32.169   9.084  24.519  0.00  0.00    +0.025 C 
ATOM     52  CG2 ILE A   1      32.043   8.072  23.393  0.00  0.00    +0.002 C 
BRANCH  51  53
ATOM     53  CG1 ILE A   1      30.948  10.005  24.530  0.00  0.00    +0.002 C 
ATOM     54  CD1 ILE A   1      30.957  10.983  23.350  0.00  0.00    +0.000 C 
ENDBRANCH  51  53
ENDBRANCH  48  51
ENDBRANCH  44  48
ENDBRANCH  43  45
BRANCH  43  55
ATOM     55  CB  SER A   2      28.879   7.165  28.753  0.00  0.00    +0.166 C 
BRANCH  55  56
ATOM     56  OG  SER A   2      29.929   6.325  29.189  0.00  0.00    -0.380 OA
ATOM     57  H   SER A   2      30.798   6.731  28.944  0.00  0.00    +0.211 HD
ENDBRANCH  55  56
ENDBRANCH  43  55
ENDBRANCH  39  43
ENDBRANCH  38  41
BRANCH  38  58
ATOM     58  CB  TYR A   3      25.493   7.766  24.007  0.00  0.00    +0.055 C 
BRANCH  58  59
ATOM     59  CG  TYR A   3      26.674   8.092  23.115  0.00  0.00    -0.020 A 
ATOM     60  CD2 TYR A   3      27.608   7.113  22.786  0.00  0.00    -0.001 A 
ATOM     61  CE2 TYR A   3      28.693   7.398  21.970  0.00  0.00    +0.036 A 
ATOM     62  CZ  TYR A   3      28.860   8.679  21.453  0.00  0.00    +0.134 A 
ATOM     63  CE1 TYR A   3      27.945   9.674  21.764  0.00  0.00    +0.036 A 
ATOM     64  CD1 TYR A   3      26.851   9.372  22.595  0.00  0.00    -0.001 A 
BRANCH  62  65
ATOM     65  OH  TYR A   3      29.927   8.921  20.611  0.00  0.00    -0.506 OA
ATOM     66  HH  TYR A   3      29.913   9.869  20.327  0.00  0.00    +0.292 HD
ENDBRANCH  62  65
ENDBRANCH  58  59
ENDBRANCH  38  58
ENDBRANCH   1  38
TORSDOF 29
REMARK  Name = ../refined-set-2016/2web/2web_pocket.pdb
REMARK  255 active torsions:
REMARK  status: ('A' for Active; 'I' for Inactive)
REMARK    1  A    between atoms: _1  and  _3
REMARK    2  A    between atoms: _3  and  _4
REMARK    3  A    between atoms: _3  and  _6
REMARK    4  A    between atoms: _6  and  _7
REMARK    5  A    between atoms: _10  and  _12
REMARK    6  A    between atoms: _12  and  _13
REMARK    7  A    between atoms: _12  and  _15
REMARK    8  A    between atoms: _15  and  _16
REMARK    9  A    between atoms: _16  and  _17
REMARK   10  A    between atoms: _20  and  _22
REMARK   11  A    between atoms: _22  and  _23
REMARK   12  A    between atoms: _22  and  _25
REMARK   13  A    between atoms: _25  and  _26
REMARK   14  A    between atoms: _26  and  _27
REMARK   15  A    between atoms: _30  and  _32
REMARK   16  A    between atoms: _32  and  _33
REMARK   17  A    between atoms: _32  and  _35
REMARK   18  A    between atoms: _35  and  _36
REMARK   19  A    between atoms: _41  and  _42
REMARK   20  A    between atoms: _44  and  _46
REMARK   21  A    between atoms: _46  and  _47
REMARK   22  A    between atoms: _46  and  _49
REMARK   23  A    between atoms: _49  and  _50
REMARK   24  A    between atoms: _55  and  _57
REMARK   25  A    between atoms: _57  and  _58
REMARK   26  A    between atoms: _57  and  _60
REMARK   27  A    between atoms: _60  and  _61
REMARK   28  A    between atoms: _67  and  _69
REMARK   29  A    between atoms: _69  and  _70
REMARK   30  A    between atoms: _69  and  _72
REMARK   31  A    between atoms: _72  and  _73
REMARK   32  A    between atoms: _76  and  _78
REMARK   33  A    between atoms: _78  and  _79
REMARK   34  A    between atoms: _78  and  _81
REMARK   35  A    between atoms: _81  and  _82
REMARK   36  A    between atoms: _85  and  _87
REMARK   37  A    between atoms: _87  and  _88
REMARK   38  A    between atoms: _90  and  _92
REMARK   39  A    between atoms: _92  and  _93
REMARK   40  A    between atoms: _92  and  _95
REMARK   41  A    between atoms: _95  and  _96
REMARK   42  A    between atoms: _98  and  _100
REMARK   43  A    between atoms: _100  and  _101
REMARK   44  A    between atoms: _104  and  _106
REMARK   45  A    between atoms: _106  and  _107
REMARK   46  A    between atoms: _106  and  _109
REMARK   47  A    between atoms: _109  and  _110
REMARK   48  A    between atoms: _113  and  _115
REMARK   49  A    between atoms: _115  and  _116
REMARK   50  A    between atoms: _115  and  _118
REMARK   51  A    between atoms: _118  and  _119
REMARK   52  A    between atoms: _129  and  _131
REMARK   53  A    between atoms: _131  and  _132
REMARK   54  A    between atoms: _131  and  _134
REMARK   55  A    between atoms: _134  and  _135
REMARK   56  A    between atoms: _138  and  _140
REMARK   57  A    between atoms: _140  and  _141
REMARK   58  A    between atoms: _140  and  _143
REMARK   59  A    between atoms: _143  and  _144
REMARK   60  A    between atoms: _146  and  _148
REMARK   61  A    between atoms: _148  and  _149
REMARK   62  A    between atoms: _148  and  _151
REMARK   63  A    between atoms: _151  and  _152
REMARK   64  A    between atoms: _157  and  _158
REMARK   65  A    between atoms: _160  and  _162
REMARK   66  A    between atoms: _162  and  _163
REMARK   67  A    between atoms: _165  and  _167
REMARK   68  A    between atoms: _167  and  _168
REMARK   69  A    between atoms: _167  and  _170
REMARK   70  A    between atoms: _170  and  _171
REMARK   71  A    between atoms: _174  and  _176
REMARK   72  A    between atoms: _176  and  _177
REMARK   73  A    between atoms: _179  and  _181
REMARK   74  A    between atoms: _181  and  _182
REMARK   75  A    between atoms: _181  and  _184
REMARK   76  A    between atoms: _184  and  _185
REMARK   77  A    between atoms: _187  and  _189
REMARK   78  A    between atoms: _189  and  _190
REMARK   79  A    between atoms: _189  and  _192
REMARK   80  A    between atoms: _192  and  _193
REMARK   81  A    between atoms: _195  and  _197
REMARK   82  A    between atoms: _197  and  _198
REMARK   83  A    between atoms: _197  and  _200
REMARK   84  A    between atoms: _200  and  _201
REMARK   85  A    between atoms: _203  and  _205
REMARK   86  A    between atoms: _205  and  _206
REMARK   87  A    between atoms: _209  and  _211
REMARK   88  A    between atoms: _211  and  _212
REMARK   89  A    between atoms: _211  and  _214
REMARK   90  A    between atoms: _214  and  _215
REMARK   91  A    between atoms: _215  and  _216
REMARK   92  A    between atoms: _221  and  _223
REMARK   93  A    between atoms: _223  and  _224
REMARK   94  A    between atoms: _223  and  _226
REMARK   95  A    between atoms: _226  and  _227
REMARK   96  A    between atoms: _233  and  _235
REMARK   97  A    between atoms: _235  and  _236
REMARK   98  A    between atoms: _235  and  _238
REMARK   99  A    between atoms: _238  and  _239
REMARK  100  A    between atoms: _239  and  _240
REMARK  101  A    between atoms: _245  and  _247
REMARK  102  A    between atoms: _247  and  _248
REMARK  103  A    between atoms: _247  and  _250
REMARK  104  A    between atoms: _250  and  _251
REMARK  105  A    between atoms: _251  and  _252
REMARK  106  A    between atoms: _257  and  _259
REMARK  107  A    between atoms: _259  and  _260
REMARK  108  A    between atoms: _259  and  _262
REMARK  109  A    between atoms: _262  and  _263
REMARK  110  A    between atoms: _266  and  _268
REMARK  111  A    between atoms: _268  and  _269
REMARK  112  A    between atoms: _268  and  _271
REMARK  113  A    between atoms: _271  and  _272
REMARK  114  A    between atoms: _275  and  _277
REMARK  115  A    between atoms: _277  and  _278
REMARK  116  A    between atoms: _277  and  _280
REMARK  117  A    between atoms: _280  and  _281
REMARK  118  A    between atoms: _286  and  _288
REMARK  119  A    between atoms: _288  and  _289
REMARK  120  A    between atoms: _288  and  _291
REMARK  121  A    between atoms: _291  and  _292
REMARK  122  A    between atoms: _297  and  _299
REMARK  123  A    between atoms: _299  and  _300
REMARK  124  A    between atoms: _302  and  _304
REMARK  125  A    between atoms: _304  and  _305
REMARK  126  A    between atoms: _304  and  _307
REMARK  127  A    between atoms: _307  and  _308
REMARK  128  A    between atoms: _311  and  _313
REMARK  129  A    between atoms: _313  and  _314
REMARK  130  A    between atoms: _316  and  _318
REMARK  131  A    between atoms: _318  and  _319
REMARK  132  A    between atoms: _318  and  _321
REMARK  133  A    between atoms: _321  and  _322
REMARK  134  A    between atoms: _325  and  _327
REMARK  135  A    between atoms: _327  and  _328
REMARK  136  A    between atoms: _331  and  _333
REMARK  137  A    between atoms: _333  and  _334
REMARK  138  A    between atoms: _333  and  _336
REMARK  139  A    between atoms: _336  and  _337
REMARK  140  A    between atoms: _340  and  _342
REMARK  141  A    between atoms: _342  and  _343
REMARK  142  A    between atoms: _342  and  _345
REMARK  143  A    between atoms: _345  and  _346
REMARK  144  A    between atoms: _349  and  _351
REMARK  145  A    between atoms: _351  and  _352
REMARK  146  A    between atoms: _351  and  _354
REMARK  147  A    between atoms: _354  and  _355
REMARK  148  A    between atoms: _355  and  _356
REMARK  149  A    between atoms: _361  and  _363
REMARK  150  A    between atoms: _363  and  _364
REMARK  151  A    between atoms: _363  and  _366
REMARK  152  A    between atoms: _366  and  _367
REMARK  153  A    between atoms: _373  and  _375
REMARK  154  A    between atoms: _375  and  _376
REMARK  155  A    between atoms: _375  and  _378
REMARK  156  A    between atoms: _378  and  _379
REMARK  157  A    between atoms: _382  and  _384
REMARK  158  A    between atoms: _384  and  _385
REMARK  159  A    between atoms: _388  and  _390
REMARK  160  A    between atoms: _390  and  _391
REMARK  161  A    between atoms: _390  and  _393
REMARK  162  A    between atoms: _393  and  _394
REMARK  163  A    between atoms: _397  and  _399
REMARK  164  A    between atoms: _399  and  _400
REMARK  165  A    between atoms: _399  and  _402
REMARK  166  A    between atoms: _402  and  _403
REMARK  167  A    between atoms: _406  and  _408
REMARK  168  A    between atoms: _408  and  _409
REMARK  169  A    between atoms: _411  and  _413
REMARK  170  A    between atoms: _413  and  _414
REMARK  171  A    between atoms: _413  and  _416
REMARK  172  A    between atoms: _416  and  _417
REMARK  173  A    between atoms: _420  and  _422
REMARK  174  A    between atoms: _422  and  _423
REMARK  175  A    between atoms: _422  and  _425
REMARK  176  A    between atoms: _425  and  _426
REMARK  177  A    between atoms: _429  and  _431
REMARK  178  A    between atoms: _431  and  _432
REMARK  179  A    between atoms: _431  and  _434
REMARK  180  A    between atoms: _434  and  _435
REMARK  181  A    between atoms: _438  and  _440
REMARK  182  A    between atoms: _440  and  _441
REMARK  183  A    between atoms: _440  and  _443
REMARK  184  A    between atoms: _443  and  _444
REMARK  185  A    between atoms: _447  and  _449
REMARK  186  A    between atoms: _449  and  _450
REMARK  187  A    between atoms: _449  and  _452
REMARK  188  A    between atoms: _452  and  _453
REMARK  189  A    between atoms: _456  and  _458
REMARK  190  A    between atoms: _458  and  _459
REMARK  191  A    between atoms: _458  and  _461
REMARK  192  A    between atoms: _461  and  _462
REMARK  193  A    between atoms: _464  and  _466
REMARK  194  A    between atoms: _466  and  _467
REMARK  195  A    between atoms: _466  and  _469
REMARK  196  A    between atoms: _469  and  _470
REMARK  197  A    between atoms: _475  and  _477
REMARK  198  A    between atoms: _477  and  _478
REMARK  199  A    between atoms: _477  and  _480
REMARK  200  A    between atoms: _480  and  _481
REMARK  201  A    between atoms: _483  and  _485
REMARK  202  A    between atoms: _485  and  _486
REMARK  203  A    between atoms: _485  and  _488
REMARK  204  A    between atoms: _488  and  _489
REMARK  205  A    between atoms: _492  and  _494
REMARK  206  A    between atoms: _494  and  _495
REMARK  207  A    between atoms: _494  and  _497
REMARK  208  A    between atoms: _497  and  _498
REMARK  209  A    between atoms: _504  and  _506
REMARK  210  A    between atoms: _506  and  _507
REMARK  211  A    between atoms: _506  and  _509
REMARK  212  A    between atoms: _509  and  _510
REMARK  213  A    between atoms: _512  and  _514
REMARK  214  A    between atoms: _514  and  _515
REMARK  215  A    between atoms: _514  and  _517
REMARK  216  A    between atoms: _517  and  _518
REMARK  217  A    between atoms: _521  and  _523
REMARK  218  A    between atoms: _523  and  _524
REMARK  219  A    between atoms: _523  and  _526
REMARK  220  A    between atoms: _526  and  _527
REMARK  221  A    between atoms: _533  and  _535
REMARK  222  A    between atoms: _535  and  _536
REMARK  223  A    between atoms: _538  and  _540
REMARK  224  A    between atoms: _540  and  _541
REMARK  225  A    between atoms: _540  and  _543
REMARK  226  A    between atoms: _543  and  _544
REMARK  227  A    between atoms: _547  and  _549
REMARK  228  A    between atoms: _549  and  _550
REMARK  229  A    between atoms: _552  and  _554
REMARK  230  A    between atoms: _554  and  _555
REMARK  231  A    between atoms: _554  and  _557
REMARK  232  A    between atoms: _557  and  _558
REMARK  233  A    between atoms: _563  and  _564
REMARK  234  A    between atoms: _566  and  _568
REMARK  235  A    between atoms: _568  and  _569
REMARK  236  A    between atoms: _568  and  _571
REMARK  237  A    between atoms: _571  and  _572
REMARK  238  A    between atoms: _575  and  _577
REMARK  239  A    between atoms: _577  and  _578
REMARK  240  A    between atoms: _577  and  _580
REMARK  241  A    between atoms: _580  and  _581
REMARK  242  A    between atoms: _584  and  _586
REMARK  243  A    between atoms: _586  and  _587
REMARK  244  A    between atoms: _586  and  _589
REMARK  245  A    between atoms: _592  and  _594
REMARK  246  A    between atoms: _594  and  _595
REMARK  247  A    between atoms: _594  and  _597
REMARK  248  A    between atoms: _597  and  _598
REMARK  249  A    between atoms: _598  and  _599
REMARK  250  A    between atoms: _605  and  _606
REMARK  251  A    between atoms: _611  and  _613
REMARK  252  A    between atoms: _613  and  _614
REMARK  253  A    between atoms: _613  and  _616
REMARK  254  A    between atoms: _616  and  _617
REMARK  255  A    between atoms: _617  and  _618
REMARK                            x       y       z     vdW  Elec       q    Type
REMARK                         _______ _______ _______ _____ _____    ______ ____
ROOT
ATOM      1  C   GLN A   5      27.459  -4.268  16.519  0.00  0.00    +0.241 C 
ATOM      2  N   GLN A   6      26.230  -3.958  16.922  0.00  0.00    -0.297 N 
ATOM      3  H   GLN A   6      26.090  -3.394  17.785  0.00  0.00    +0.150 HD
ATOM      4  O   GLN A   5      27.668  -4.930  15.505  0.00  0.00    -0.273 OA
ENDROOT
BRANCH   2   5
ATOM      5  CA  GLN A   6      25.079  -4.412  16.149  0.00  0.00    +0.149 C 
BRANCH   5   6
ATOM      6  C   GLN A   6      24.737  -3.534  14.957  0.00  0.00    +0.241 C 
ATOM      7  N   ASP A   7      25.082  -2.258  15.040  0.00  0.00    -0.297 N 
ATOM      8  H   ASP A   7      25.608  -1.920  15.871  0.00  0.00    +0.150 HD
ATOM      9  O   GLN A   6      24.134  -3.990  13.998  0.00  0.00    -0.273 OA
BRANCH   7  10
ATOM     10  CA  ASP A   7      24.734  -1.325  13.983  0.00  0.00    +0.160 C 
BRANCH  10  11
ATOM     11  C   ASP A   7      25.776  -1.261  12.871  0.00  0.00    +0.241 C 
ATOM     12  O   ASP A   7      26.818  -0.635  13.011  0.00  0.00    -0.273 OA
ATOM     13  N   THR A   8      25.502  -1.914  11.754  0.00  0.00    -0.295 N 
ATOM     14  H   THR A   8      24.618  -2.454  11.664  0.00  0.00    +0.150 HD
BRANCH  13  15
ATOM     15  CA  THR A   8      26.449  -1.869  10.657  0.00  0.00    +0.176 C 
BRANCH  15  16
ATOM     16  C   THR A   8      26.207  -0.711   9.690  0.00  0.00    +0.243 C 
ATOM     17  N   ASN A   9      25.238   0.140  10.000  0.00  0.00    -0.297 N 
ATOM     18  H   ASN A   9      24.699  -0.002  10.878  0.00  0.00    +0.150 HD
ATOM     19  O   THR A   8      26.848  -0.638   8.649  0.00  0.00    -0.273 OA
BRANCH  17  20
ATOM     20  CA  ASN A   9      24.910   1.274   9.135  0.00  0.00    +0.158 C 
BRANCH  20  21
ATOM     21  C   ASN A   9      25.907   2.426   9.228  0.00  0.00    +0.241 C 
ATOM     22  N   ASN A  10      26.658   2.494  10.324  0.00  0.00    -0.298 N 
ATOM     23  H   ASN A  10      26.559   1.796  11.089  0.00  0.00    +0.150 HD
ATOM     24  O   ASN A   9      26.045   3.217   8.283  0.00  0.00    -0.273 OA
BRANCH  22  25
ATOM     25  CA  ASN A  10      27.619   3.574  10.415  0.00  0.00    +0.146 C 
BRANCH  25  26
ATOM     26  C   ASN A  10      28.967   3.006  10.834  0.00  0.00    +0.227 C 
ATOM     27  O   ASN A  10      29.047   1.848  11.282  0.00  0.00    -0.286 OA
ENDBRANCH  25  26
BRANCH  25  28
ATOM     28  CB  ASN A  10      27.165   4.675  11.389  0.00  0.00    +0.112 C 
BRANCH  28  29
ATOM     29  CG  ASN A  10      27.279   4.281  12.859  0.00  0.00    +0.222 C 
ATOM     30  ND2 ASN A  10      26.139   4.233  13.537  0.00  0.00    -0.329 N 
ATOM     31 HD21 ASN A  10      26.138   3.931  14.532  0.00  0.00    +0.145 HD
ATOM     32 HD22 ASN A  10      25.247   4.498  13.073  0.00  0.00    +0.145 HD
ATOM     33  OD1 ASN A  10      28.363   3.976  13.368  0.00  0.00    -0.275 OA
ENDBRANCH  28  29
ENDBRANCH  25  28
ENDBRANCH  22  25
ENDBRANCH  20  21
BRANCH  20  34
ATOM     34  CB  ASN A   9      23.511   1.811   9.434  0.00  0.00    +0.114 C 
BRANCH  34  35
ATOM     35  CG  ASN A   9      22.428   0.846   9.038  0.00  0.00    +0.222 C 
ATOM     36  ND2 ASN A   9      21.435   0.689   9.898  0.00  0.00    -0.329 N 
ATOM     37 HD21 ASN A   9      21.404   1.261  10.766  0.00  0.00    +0.145 HD
ATOM     38 HD22 ASN A   9      20.686  -0.006   9.706  0.00  0.00    +0.145 HD
ATOM     39  OD1 ASN A   9      22.519   0.201   7.998  0.00  0.00    -0.275 OA
ENDBRANCH  34  35
ENDBRANCH  20  34
ENDBRANCH  17  20
ENDBRANCH  15  16
BRANCH  15  40
ATOM     40  CB  THR A   8      26.508  -3.204   9.896  0.00  0.00    +0.137 C 
ATOM     41  CG2 THR A   8      26.954  -4.303  10.858  0.00  0.00    +0.034 C 
BRANCH  40  42
ATOM     42  OG1 THR A   8      25.202  -3.519   9.387  0.00  0.00    -0.382 OA
ATOM     43  HG1 THR A   8      24.906  -2.800   8.774  0.00  0.00    +0.210 HD
ENDBRANCH  40  42
ENDBRANCH  15  40
ENDBRANCH  13  15
ENDBRANCH  10  11
BRANCH  10  44
ATOM     44  CB  ASP A   7      24.488   0.041  14.622  0.00  0.00    +0.143 C 
BRANCH  44  45
ATOM     45  CG  ASP A   7      23.912   1.059  13.654  0.00  0.00    +0.367 C 
ATOM     46  OD2 ASP A   7      23.519   2.152  14.125  0.00  0.00    -0.246 OA
ATOM     47  OD1 ASP A   7      23.849   0.769  12.444  0.00  0.00    -0.246 OA
ENDBRANCH  44  45
ENDBRANCH  10  44
ENDBRANCH   7  10
ENDBRANCH   5   6
BRANCH   5  48
ATOM     48  CB  GLN A   6      23.859  -4.587  17.046  0.00  0.00    +0.039 C 
BRANCH  48  49
ATOM     49  CG  GLN A   6      24.067  -5.608  18.148  0.00  0.00    +0.087 C 
BRANCH  49  50
ATOM     50  CD  GLN A   6      22.922  -5.626  19.143  0.00  0.00    +0.219 C 
ATOM     51  OE1 GLN A   6      23.037  -6.208  20.223  0.00  0.00    -0.275 OA
ATOM     52  NE2 GLN A   6      21.812  -4.979  18.793  0.00  0.00    -0.329 N 
ATOM     53 HE21 GLN A   6      20.999  -4.952  19.442  0.00  0.00    +0.145 HD
ATOM     54 HE22 GLN A   6      21.758  -4.501  17.871  0.00  0.00    +0.145 HD
ENDBRANCH  49  50
ENDBRANCH  48  49
ENDBRANCH   5  48
ENDBRANCH   2   5
BRANCH   1  55
ATOM     55  CA  GLN A   5      28.639  -3.792  17.381  0.00  0.00    +0.149 C 
BRANCH  55  57
ATOM     56  C   PHE A   4      28.011  -1.476  17.303  0.00  0.00    +0.241 C 
ATOM     57  N   GLN A   5      28.255  -2.551  18.040  0.00  0.00    -0.297 N 
ATOM     58  H   GLN A   5      28.173  -2.509  19.076  0.00  0.00    +0.150 HD
ATOM     59  O   PHE A   4      28.128  -1.477  16.085  0.00  0.00    -0.273 OA
BRANCH  56  60
ATOM     60  CA  PHE A   4      27.580  -0.224  18.043  0.00  0.00    +0.153 C 
BRANCH  60  62
ATOM     61  C   GLN A   3      25.506  -0.894  19.052  0.00  0.00    +0.241 C 
ATOM     62  N   PHE A   4      26.767  -0.518  19.200  0.00  0.00    -0.297 N 
ATOM     63  H   PHE A   4      27.174  -0.434  20.153  0.00  0.00    +0.150 HD
ATOM     64  O   GLN A   3      24.977  -0.986  17.938  0.00  0.00    -0.273 OA
BRANCH  61  65
ATOM     65  CA  GLN A   3      24.733  -1.198  20.332  0.00  0.00    +0.149 C 
BRANCH  65  67
ATOM     66  C   ALA A   2      26.062  -3.145  20.859  0.00  0.00    +0.241 C 
ATOM     67  N   GLN A   3      25.531  -1.992  21.254  0.00  0.00    -0.297 N 
ATOM     68  H   GLN A   3      25.687  -1.656  22.226  0.00  0.00    +0.150 HD
ATOM     69  O   ALA A   2      25.927  -3.586  19.717  0.00  0.00    -0.273 OA
BRANCH  66  70
ATOM     70  CA  ALA A   2      26.876  -3.926  21.893  0.00  0.00    +0.149 C 
ATOM     71  CB  ALA A   2      25.959  -4.788  22.731  0.00  0.00    +0.031 C 
BRANCH  70  73
ATOM     72  C   SER A   1      28.613  -2.261  22.302  0.00  0.00    +0.241 C 
ATOM     73  N   ALA A   2      27.732  -3.136  22.769  0.00  0.00    -0.297 N 
ATOM     74  H   ALA A   2      27.649  -3.263  23.798  0.00  0.00    +0.150 HD
ATOM     75  O   SER A   1      28.731  -2.000  21.104  0.00  0.00    -0.274 OA
BRANCH  72  76
ATOM     76  CA  SER A   1      29.475  -1.571  23.350  0.00  0.00    +0.174 C 
BRANCH  76  77
ATOM     77  N   SER A   1      30.520  -0.795  22.719  0.00  0.00    -0.236 NA
ATOM     78  H   SER A   1      30.431   0.241  22.683  0.00  0.00    +0.142 HD
ENDBRANCH  76  77
BRANCH  76  79
ATOM     79  CB  SER A   1      28.636  -0.688  24.255  0.00  0.00    +0.163 C 
BRANCH  79  80
ATOM     80  OG  SER A   1      27.949   0.271  23.479  0.00  0.00    -0.380 OA
ATOM     81  H   SER A   1      27.360  -0.191  22.832  0.00  0.00    +0.211 HD
ENDBRANCH  79  80
ENDBRANCH  76  79
ENDBRANCH  72  76
ENDBRANCH  70  73
ENDBRANCH  66  70
ENDBRANCH  65  67
BRANCH  65  82
ATOM     82  CB  GLN A   3      24.255   0.103  20.990  0.00  0.00    +0.039 C 
BRANCH  82  83
ATOM     83  CG  GLN A   3      23.360  -0.036  22.232  0.00  0.00    +0.087 C 
BRANCH  83  84
ATOM     84  CD  GLN A   3      24.101  -0.204  23.574  0.00  0.00    +0.219 C 
ATOM     85  NE2 GLN A   3      23.390   0.085  24.679  0.00  0.00    -0.329 N 
ATOM     86 HE21 GLN A   3      23.842   0.042  25.614  0.00  0.00    +0.145 HD
ATOM     87 HE22 GLN A   3      22.388   0.352  24.598  0.00  0.00    +0.145 HD
ATOM     88  OE1 GLN A   3      25.291  -0.525  23.619  0.00  0.00    -0.275 OA
ENDBRANCH  83  84
ENDBRANCH  82  83
ENDBRANCH  65  82
ENDBRANCH  61  65
ENDBRANCH  60  62
BRANCH  60  89
ATOM     89  CB  PHE A   4      28.788   0.602  18.446  0.00  0.00    +0.055 C 
BRANCH  89  90
ATOM     90  CG  PHE A   4      28.418   1.925  19.024  0.00  0.00    -0.020 A 
ATOM     91  CD2 PHE A   4      28.636   2.209  20.368  0.00  0.00    -0.004 A 
ATOM     92  CE2 PHE A   4      28.294   3.452  20.894  0.00  0.00    -0.000 A 
ATOM     93  CZ  PHE A   4      27.715   4.414  20.070  0.00  0.00    -0.000 A 
ATOM     94  CE1 PHE A   4      27.469   4.123  18.730  0.00  0.00    -0.000 A 
ATOM     95  CD1 PHE A   4      27.827   2.886  18.214  0.00  0.00    -0.004 A 
ENDBRANCH  89  90
ENDBRANCH  60  89
ENDBRANCH  56  60
ENDBRANCH  55  57
BRANCH  55  96
ATOM     96  CB  GLN A   5      28.999  -4.872  18.407  0.00  0.00    +0.039 C 
BRANCH  96  97
ATOM     97  CG  GLN A   5      30.127  -4.476  19.345  0.00  0.00    +0.087 C 
BRANCH  97  98
ATOM     98  CD  GLN A   5      30.414  -5.516  20.415  0.00  0.00    +0.219 C 
ATOM     99  NE2 GLN A   5      30.695  -5.046  21.636  0.00  0.00    -0.329 N 
ATOM    100 HE21 GLN A   5      30.812  -5.704  22.432  0.00  0.00    +0.145 HD
ATOM    101 HE22 GLN A   5      30.796  -4.022  21.789  0.00  0.00    +0.145 HD
ATOM    102  OE1 GLN A   5      30.283  -6.724  20.177  0.00  0.00    -0.275 OA
ENDBRANCH  97  98
ENDBRANCH  96  97
ENDBRANCH  55  96
ENDBRANCH   1  55
TORSDOF 41
REMARK  Name = ../refined-set-2016/2web/2web_pocket.pdb
REMARK  255 active torsions:
REMARK  status: ('A' for Active; 'I' for Inactive)
REMARK    1  A    between atoms: _1  and  _3
REMARK    2  A    between atoms: _3  and  _4
REMARK    3  A    between atoms: _3  and  _6
REMARK    4  A    between atoms: _6  and  _7
REMARK    5  A    between atoms: _10  and  _12
REMARK    6  A    between atoms: _12  and  _13
REMARK    7  A    between atoms: _12  and  _15
REMARK    8  A    between atoms: _15  and  _16
REMARK    9  A    between atoms: _16  and  _17
REMARK   10  A    between atoms: _20  and  _22
REMARK   11  A    between atoms: _22  and  _23
REMARK   12  A    between atoms: _22  and  _25
REMARK   13  A    between atoms: _25  and  _26
REMARK   14  A    between atoms: _26  and  _27
REMARK   15  A    between atoms: _30  and  _32
REMARK   16  A    between atoms: _32  and  _33
REMARK   17  A    between atoms: _32  and  _35
REMARK   18  A    between atoms: _35  and  _36
REMARK   19  A    between atoms: _41  and  _42
REMARK   20  A    between atoms: _44  and  _46
REMARK   21  A    between atoms: _46  and  _47
REMARK   22  A    between atoms: _46  and  _49
REMARK   23  A    between atoms: _49  and  _50
REMARK   24  A    between atoms: _55  and  _57
REMARK   25  A    between atoms: _57  and  _58
REMARK   26  A    between atoms: _57  and  _60
REMARK   27  A    between atoms: _60  and  _61
REMARK   28  A    between atoms: _67  and  _69
REMARK   29  A    between atoms: _69  and  _70
REMARK   30  A    between atoms: _69  and  _72
REMARK   31  A    between atoms: _72  and  _73
REMARK   32  A    between atoms: _76  and  _78
REMARK   33  A    between atoms: _78  and  _79
REMARK   34  A    between atoms: _78  and  _81
REMARK   35  A    between atoms: _81  and  _82
REMARK   36  A    between atoms: _85  and  _87
REMARK   37  A    between atoms: _87  and  _88
REMARK   38  A    between atoms: _90  and  _92
REMARK   39  A    between atoms: _92  and  _93
REMARK   40  A    between atoms: _92  and  _95
REMARK   41  A    between atoms: _95  and  _96
REMARK   42  A    between atoms: _98  and  _100
REMARK   43  A    between atoms: _100  and  _101
REMARK   44  A    between atoms: _104  and  _106
REMARK   45  A    between atoms: _106  and  _107
REMARK   46  A    between atoms: _106  and  _109
REMARK   47  A    between atoms: _109  and  _110
REMARK   48  A    between atoms: _113  and  _115
REMARK   49  A    between atoms: _115  and  _116
REMARK   50  A    between atoms: _115  and  _118
REMARK   51  A    between atoms: _118  and  _119
REMARK   52  A    between atoms: _129  and  _131
REMARK   53  A    between atoms: _131  and  _132
REMARK   54  A    between atoms: _131  and  _134
REMARK   55  A    between atoms: _134  and  _135
REMARK   56  A    between atoms: _138  and  _140
REMARK   57  A    between atoms: _140  and  _141
REMARK   58  A    between atoms: _140  and  _143
REMARK   59  A    between atoms: _143  and  _144
REMARK   60  A    between atoms: _146  and  _148
REMARK   61  A    between atoms: _148  and  _149
REMARK   62  A    between atoms: _148  and  _151
REMARK   63  A    between atoms: _151  and  _152
REMARK   64  A    between atoms: _157  and  _158
REMARK   65  A    between atoms: _160  and  _162
REMARK   66  A    between atoms: _162  and  _163
REMARK   67  A    between atoms: _165  and  _167
REMARK   68  A    between atoms: _167  and  _168
REMARK   69  A    between atoms: _167  and  _170
REMARK   70  A    between atoms: _170  and  _171
REMARK   71  A    between atoms: _174  and  _176
REMARK   72  A    between atoms: _176  and  _177
REMARK   73  A    between atoms: _179  and  _181
REMARK   74  A    between atoms: _181  and  _182
REMARK   75  A    between atoms: _181  and  _184
REMARK   76  A    between atoms: _184  and  _185
REMARK   77  A    between atoms: _187  and  _189
REMARK   78  A    between atoms: _189  and  _190
REMARK   79  A    between atoms: _189  and  _192
REMARK   80  A    between atoms: _192  and  _193
REMARK   81  A    between atoms: _195  and  _197
REMARK   82  A    between atoms: _197  and  _198
REMARK   83  A    between atoms: _197  and  _200
REMARK   84  A    between atoms: _200  and  _201
REMARK   85  A    between atoms: _203  and  _205
REMARK   86  A    between atoms: _205  and  _206
REMARK   87  A    between atoms: _209  and  _211
REMARK   88  A    between atoms: _211  and  _212
REMARK   89  A    between atoms: _211  and  _214
REMARK   90  A    between atoms: _214  and  _215
REMARK   91  A    between atoms: _215  and  _216
REMARK   92  A    between atoms: _221  and  _223
REMARK   93  A    between atoms: _223  and  _224
REMARK   94  A    between atoms: _223  and  _226
REMARK   95  A    between atoms: _226  and  _227
REMARK   96  A    between atoms: _233  and  _235
REMARK   97  A    between atoms: _235  and  _236
REMARK   98  A    between atoms: _235  and  _238
REMARK   99  A    between atoms: _238  and  _239
REMARK  100  A    between atoms: _239  and  _240
REMARK  101  A    between atoms: _245  and  _247
REMARK  102  A    between atoms: _247  and  _248
REMARK  103  A    between atoms: _247  and  _250
REMARK  104  A    between atoms: _250  and  _251
REMARK  105  A    between atoms: _251  and  _252
REMARK  106  A    between atoms: _257  and  _259
REMARK  107  A    between atoms: _259  and  _260
REMARK  108  A    between atoms: _259  and  _262
REMARK  109  A    between atoms: _262  and  _263
REMARK  110  A    between atoms: _266  and  _268
REMARK  111  A    between atoms: _268  and  _269
REMARK  112  A    between atoms: _268  and  _271
REMARK  113  A    between atoms: _271  and  _272
REMARK  114  A    between atoms: _275  and  _277
REMARK  115  A    between atoms: _277  and  _278
REMARK  116  A    between atoms: _277  and  _280
REMARK  117  A    between atoms: _280  and  _281
REMARK  118  A    between atoms: _286  and  _288
REMARK  119  A    between atoms: _288  and  _289
REMARK  120  A    between atoms: _288  and  _291
REMARK  121  A    between atoms: _291  and  _292
REMARK  122  A    between atoms: _297  and  _299
REMARK  123  A    between atoms: _299  and  _300
REMARK  124  A    between atoms: _302  and  _304
REMARK  125  A    between atoms: _304  and  _305
REMARK  126  A    between atoms: _304  and  _307
REMARK  127  A    between atoms: _307  and  _308
REMARK  128  A    between atoms: _311  and  _313
REMARK  129  A    between atoms: _313  and  _314
REMARK  130  A    between atoms: _316  and  _318
REMARK  131  A    between atoms: _318  and  _319
REMARK  132  A    between atoms: _318  and  _321
REMARK  133  A    between atoms: _321  and  _322
REMARK  134  A    between atoms: _325  and  _327
REMARK  135  A    between atoms: _327  and  _328
REMARK  136  A    between atoms: _331  and  _333
REMARK  137  A    between atoms: _333  and  _334
REMARK  138  A    between atoms: _333  and  _336
REMARK  139  A    between atoms: _336  and  _337
REMARK  140  A    between atoms: _340  and  _342
REMARK  141  A    between atoms: _342  and  _343
REMARK  142  A    between atoms: _342  and  _345
REMARK  143  A    between atoms: _345  and  _346
REMARK  144  A    between atoms: _349  and  _351
REMARK  145  A    between atoms: _351  and  _352
REMARK  146  A    between atoms: _351  and  _354
REMARK  147  A    between atoms: _354  and  _355
REMARK  148  A    between atoms: _355  and  _356
REMARK  149  A    between atoms: _361  and  _363
REMARK  150  A    between atoms: _363  and  _364
REMARK  151  A    between atoms: _363  and  _366
REMARK  152  A    between atoms: _366  and  _367
REMARK  153  A    between atoms: _373  and  _375
REMARK  154  A    between atoms: _375  and  _376
REMARK  155  A    between atoms: _375  and  _378
REMARK  156  A    between atoms: _378  and  _379
REMARK  157  A    between atoms: _382  and  _384
REMARK  158  A    between atoms: _384  and  _385
REMARK  159  A    between atoms: _388  and  _390
REMARK  160  A    between atoms: _390  and  _391
REMARK  161  A    between atoms: _390  and  _393
REMARK  162  A    between atoms: _393  and  _394
REMARK  163  A    between atoms: _397  and  _399
REMARK  164  A    between atoms: _399  and  _400
REMARK  165  A    between atoms: _399  and  _402
REMARK  166  A    between atoms: _402  and  _403
REMARK  167  A    between atoms: _406  and  _408
REMARK  168  A    between atoms: _408  and  _409
REMARK  169  A    between atoms: _411  and  _413
REMARK  170  A    between atoms: _413  and  _414
REMARK  171  A    between atoms: _413  and  _416
REMARK  172  A    between atoms: _416  and  _417
REMARK  173  A    between atoms: _420  and  _422
REMARK  174  A    between atoms: _422  and  _423
REMARK  175  A    between atoms: _422  and  _425
REMARK  176  A    between atoms: _425  and  _426
REMARK  177  A    between atoms: _429  and  _431
REMARK  178  A    between atoms: _431  and  _432
REMARK  179  A    between atoms: _431  and  _434
REMARK  180  A    between atoms: _434  and  _435
REMARK  181  A    between atoms: _438  and  _440
REMARK  182  A    between atoms: _440  and  _441
REMARK  183  A    between atoms: _440  and  _443
REMARK  184  A    between atoms: _443  and  _444
REMARK  185  A    between atoms: _447  and  _449
REMARK  186  A    between atoms: _449  and  _450
REMARK  187  A    between atoms: _449  and  _452
REMARK  188  A    between atoms: _452  and  _453
REMARK  189  A    between atoms: _456  and  _458
REMARK  190  A    between atoms: _458  and  _459
REMARK  191  A    between atoms: _458  and  _461
REMARK  192  A    between atoms: _461  and  _462
REMARK  193  A    between atoms: _464  and  _466
REMARK  194  A    between atoms: _466  and  _467
REMARK  195  A    between atoms: _466  and  _469
REMARK  196  A    between atoms: _469  and  _470
REMARK  197  A    between atoms: _475  and  _477
REMARK  198  A    between atoms: _477  and  _478
REMARK  199  A    between atoms: _477  and  _480
REMARK  200  A    between atoms: _480  and  _481
REMARK  201  A    between atoms: _483  and  _485
REMARK  202  A    between atoms: _485  and  _486
REMARK  203  A    between atoms: _485  and  _488
REMARK  204  A    between atoms: _488  and  _489
REMARK  205  A    between atoms: _492  and  _494
REMARK  206  A    between atoms: _494  and  _495
REMARK  207  A    between atoms: _494  and  _497
REMARK  208  A    between atoms: _497  and  _498
REMARK  209  A    between atoms: _504  and  _506
REMARK  210  A    between atoms: _506  and  _507
REMARK  211  A    between atoms: _506  and  _509
REMARK  212  A    between atoms: _509  and  _510
REMARK  213  A    between atoms: _512  and  _514
REMARK  214  A    between atoms: _514  and  _515
REMARK  215  A    between atoms: _514  and  _517
REMARK  216  A    between atoms: _517  and  _518
REMARK  217  A    between atoms: _521  and  _523
REMARK  218  A    between atoms: _523  and  _524
REMARK  219  A    between atoms: _523  and  _526
REMARK  220  A    between atoms: _526  and  _527
REMARK  221  A    between atoms: _533  and  _535
REMARK  222  A    between atoms: _535  and  _536
REMARK  223  A    between atoms: _538  and  _540
REMARK  224  A    between atoms: _540  and  _541
REMARK  225  A    between atoms: _540  and  _543
REMARK  226  A    between atoms: _543  and  _544
REMARK  227  A    between atoms: _547  and  _549
REMARK  228  A    between atoms: _549  and  _550
REMARK  229  A    between atoms: _552  and  _554
REMARK  230  A    between atoms: _554  and  _555
REMARK  231  A    between atoms: _554  and  _557
REMARK  232  A    between atoms: _557  and  _558
REMARK  233  A    between atoms: _563  and  _564
REMARK  234  A    between atoms: _566  and  _568
REMARK  235  A    between atoms: _568  and  _569
REMARK  236  A    between atoms: _568  and  _571
REMARK  237  A    between atoms: _571  and  _572
REMARK  238  A    between atoms: _575  and  _577
REMARK  239  A    between atoms: _577  and  _578
REMARK  240  A    between atoms: _577  and  _580
REMARK  241  A    between atoms: _580  and  _581
REMARK  242  A    between atoms: _584  and  _586
REMARK  243  A    between atoms: _586  and  _587
REMARK  244  A    between atoms: _586  and  _589
REMARK  245  A    between atoms: _592  and  _594
REMARK  246  A    between atoms: _594  and  _595
REMARK  247  A    between atoms: _594  and  _597
REMARK  248  A    between atoms: _597  and  _598
REMARK  249  A    between atoms: _598  and  _599
REMARK  250  A    between atoms: _605  and  _606
REMARK  251  A    between atoms: _611  and  _613
REMARK  252  A    between atoms: _613  and  _614
REMARK  253  A    between atoms: _613  and  _616
REMARK  254  A    between atoms: _616  and  _617
REMARK  255  A    between atoms: _617  and  _618
REMARK                            x       y       z     vdW  Elec       q    Type
REMARK                         _______ _______ _______ _____ _____    ______ ____
ROOT
ATOM      1  C   GLY A   1      30.512   7.191  13.846  0.00  0.00    +0.240 C 
ATOM      2  N   LEU A   2      30.863   8.147  14.708  0.00  0.00    -0.298 N 
ATOM      3  H   LEU A   2      31.707   8.006  15.299  0.00  0.00    +0.150 HD
ATOM      4  O   GLY A   1      29.577   7.322  13.035  0.00  0.00    -0.274 OA
ENDROOT
BRANCH   1   5
ATOM      5  CA  GLY A   1      31.399   5.937  13.836  0.00  0.00    +0.169 C 
BRANCH   5   6
ATOM      6  N   GLY A   1      31.008   5.024  12.762  0.00  0.00    -0.236 NA
ATOM      7  H   GLY A   1      29.998   4.864  12.573  0.00  0.00    +0.142 HD
ENDBRANCH   5   6
ENDBRANCH   1   5
BRANCH   2   8
ATOM      8  CA  LEU A   2      30.103   9.380  14.848  0.00  0.00    +0.137 C 
BRANCH   8   9
ATOM      9  C   LEU A   2      30.977  10.599  14.697  0.00  0.00    +0.227 C 
ATOM     10  O   LEU A   2      32.161  10.556  15.005  0.00  0.00    -0.286 OA
ENDBRANCH   8   9
BRANCH   8  11
ATOM     11  CB  LEU A   2      29.478   9.443  16.238  0.00  0.00    +0.028 C 
BRANCH  11  12
ATOM     12  CG  LEU A   2      28.102   8.810  16.438  0.00  0.00    +0.002 C 
ATOM     13  CD2 LEU A   2      27.585   9.092  17.828  0.00  0.00    +0.000 C 
ATOM     14  CD1 LEU A   2      28.110   7.319  16.153  0.00  0.00    +0.000 C 
ENDBRANCH  11  12
ENDBRANCH   8  11
ENDBRANCH   2   8
TORSDOF 6
REMARK  Name = ../refined-set-2016/2web/2web_pocket.pdb
REMARK  255 active torsions:
REMARK  status: ('A' for Active; 'I' for Inactive)
REMARK    1  A    between atoms: _1  and  _3
REMARK    2  A    between atoms: _3  and  _4
REMARK    3  A    between atoms: _3  and  _6
REMARK    4  A    between atoms: _6  and  _7
REMARK    5  A    between atoms: _10  and  _12
REMARK    6  A    between atoms: _12  and  _13
REMARK    7  A    between atoms: _12  and  _15
REMARK    8  A    between atoms: _15  and  _16
REMARK    9  A    between atoms: _16  and  _17
REMARK   10  A    between atoms: _20  and  _22
REMARK   11  A    between atoms: _22  and  _23
REMARK   12  A    between atoms: _22  and  _25
REMARK   13  A    between atoms: _25  and  _26
REMARK   14  A    between atoms: _26  and  _27
REMARK   15  A    between atoms: _30  and  _32
REMARK   16  A    between atoms: _32  and  _33
REMARK   17  A    between atoms: _32  and  _35
REMARK   18  A    between atoms: _35  and  _36
REMARK   19  A    between atoms: _41  and  _42
REMARK   20  A    between atoms: _44  and  _46
REMARK   21  A    between atoms: _46  and  _47
REMARK   22  A    between atoms: _46  and  _49
REMARK   23  A    between atoms: _49  and  _50
REMARK   24  A    between atoms: _55  and  _57
REMARK   25  A    between atoms: _57  and  _58
REMARK   26  A    between atoms: _57  and  _60
REMARK   27  A    between atoms: _60  and  _61
REMARK   28  A    between atoms: _67  and  _69
REMARK   29  A    between atoms: _69  and  _70
REMARK   30  A    between atoms: _69  and  _72
REMARK   31  A    between atoms: _72  and  _73
REMARK   32  A    between atoms: _76  and  _78
REMARK   33  A    between atoms: _78  and  _79
REMARK   34  A    between atoms: _78  and  _81
REMARK   35  A    between atoms: _81  and  _82
REMARK   36  A    between atoms: _85  and  _87
REMARK   37  A    between atoms: _87  and  _88
REMARK   38  A    between atoms: _90  and  _92
REMARK   39  A    between atoms: _92  and  _93
REMARK   40  A    between atoms: _92  and  _95
REMARK   41  A    between atoms: _95  and  _96
REMARK   42  A    between atoms: _98  and  _100
REMARK   43  A    between atoms: _100  and  _101
REMARK   44  A    between atoms: _104  and  _106
REMARK   45  A    between atoms: _106  and  _107
REMARK   46  A    between atoms: _106  and  _109
REMARK   47  A    between atoms: _109  and  _110
REMARK   48  A    between atoms: _113  and  _115
REMARK   49  A    between atoms: _115  and  _116
REMARK   50  A    between atoms: _115  and  _118
REMARK   51  A    between atoms: _118  and  _119
REMARK   52  A    between atoms: _129  and  _131
REMARK   53  A    between atoms: _131  and  _132
REMARK   54  A    between atoms: _131  and  _134
REMARK   55  A    between atoms: _134  and  _135
REMARK   56  A    between atoms: _138  and  _140
REMARK   57  A    between atoms: _140  and  _141
REMARK   58  A    between atoms: _140  and  _143
REMARK   59  A    between atoms: _143  and  _144
REMARK   60  A    between atoms: _146  and  _148
REMARK   61  A    between atoms: _148  and  _149
REMARK   62  A    between atoms: _148  and  _151
REMARK   63  A    between atoms: _151  and  _152
REMARK   64  A    between atoms: _157  and  _158
REMARK   65  A    between atoms: _160  and  _162
REMARK   66  A    between atoms: _162  and  _163
REMARK   67  A    between atoms: _165  and  _167
REMARK   68  A    between atoms: _167  and  _168
REMARK   69  A    between atoms: _167  and  _170
REMARK   70  A    between atoms: _170  and  _171
REMARK   71  A    between atoms: _174  and  _176
REMARK   72  A    between atoms: _176  and  _177
REMARK   73  A    between atoms: _179  and  _181
REMARK   74  A    between atoms: _181  and  _182
REMARK   75  A    between atoms: _181  and  _184
REMARK   76  A    between atoms: _184  and  _185
REMARK   77  A    between atoms: _187  and  _189
REMARK   78  A    between atoms: _189  and  _190
REMARK   79  A    between atoms: _189  and  _192
REMARK   80  A    between atoms: _192  and  _193
REMARK   81  A    between atoms: _195  and  _197
REMARK   82  A    between atoms: _197  and  _198
REMARK   83  A    between atoms: _197  and  _200
REMARK   84  A    between atoms: _200  and  _201
REMARK   85  A    between atoms: _203  and  _205
REMARK   86  A    between atoms: _205  and  _206
REMARK   87  A    between atoms: _209  and  _211
REMARK   88  A    between atoms: _211  and  _212
REMARK   89  A    between atoms: _211  and  _214
REMARK   90  A    between atoms: _214  and  _215
REMARK   91  A    between atoms: _215  and  _216
REMARK   92  A    between atoms: _221  and  _223
REMARK   93  A    between atoms: _223  and  _224
REMARK   94  A    between atoms: _223  and  _226
REMARK   95  A    between atoms: _226  and  _227
REMARK   96  A    between atoms: _233  and  _235
REMARK   97  A    between atoms: _235  and  _236
REMARK   98  A    between atoms: _235  and  _238
REMARK   99  A    between atoms: _238  and  _239
REMARK  100  A    between atoms: _239  and  _240
REMARK  101  A    between atoms: _245  and  _247
REMARK  102  A    between atoms: _247  and  _248
REMARK  103  A    between atoms: _247  and  _250
REMARK  104  A    between atoms: _250  and  _251
REMARK  105  A    between atoms: _251  and  _252
REMARK  106  A    between atoms: _257  and  _259
REMARK  107  A    between atoms: _259  and  _260
REMARK  108  A    between atoms: _259  and  _262
REMARK  109  A    between atoms: _262  and  _263
REMARK  110  A    between atoms: _266  and  _268
REMARK  111  A    between atoms: _268  and  _269
REMARK  112  A    between atoms: _268  and  _271
REMARK  113  A    between atoms: _271  and  _272
REMARK  114  A    between atoms: _275  and  _277
REMARK  115  A    between atoms: _277  and  _278
REMARK  116  A    between atoms: _277  and  _280
REMARK  117  A    between atoms: _280  and  _281
REMARK  118  A    between atoms: _286  and  _288
REMARK  119  A    between atoms: _288  and  _289
REMARK  120  A    between atoms: _288  and  _291
REMARK  121  A    between atoms: _291  and  _292
REMARK  122  A    between atoms: _297  and  _299
REMARK  123  A    between atoms: _299  and  _300
REMARK  124  A    between atoms: _302  and  _304
REMARK  125  A    between atoms: _304  and  _305
REMARK  126  A    between atoms: _304  and  _307
REMARK  127  A    between atoms: _307  and  _308
REMARK  128  A    between atoms: _311  and  _313
REMARK  129  A    between atoms: _313  and  _314
REMARK  130  A    between atoms: _316  and  _318
REMARK  131  A    between atoms: _318  and  _319
REMARK  132  A    between atoms: _318  and  _321
REMARK  133  A    between atoms: _321  and  _322
REMARK  134  A    between atoms: _325  and  _327
REMARK  135  A    between atoms: _327  and  _328
REMARK  136  A    between atoms: _331  and  _333
REMARK  137  A    between atoms: _333  and  _334
REMARK  138  A    between atoms: _333  and  _336
REMARK  139  A    between atoms: _336  and  _337
REMARK  140  A    between atoms: _340  and  _342
REMARK  141  A    between atoms: _342  and  _343
REMARK  142  A    between atoms: _342  and  _345
REMARK  143  A    between atoms: _345  and  _346
REMARK  144  A    between atoms: _349  and  _351
REMARK  145  A    between atoms: _351  and  _352
REMARK  146  A    between atoms: _351  and  _354
REMARK  147  A    between atoms: _354  and  _355
REMARK  148  A    between atoms: _355  and  _356
REMARK  149  A    between atoms: _361  and  _363
REMARK  150  A    between atoms: _363  and  _364
REMARK  151  A    between atoms: _363  and  _366
REMARK  152  A    between atoms: _366  and  _367
REMARK  153  A    between atoms: _373  and  _375
REMARK  154  A    between atoms: _375  and  _376
REMARK  155  A    between atoms: _375  and  _378
REMARK  156  A    between atoms: _378  and  _379
REMARK  157  A    between atoms: _382  and  _384
REMARK  158  A    between atoms: _384  and  _385
REMARK  159  A    between atoms: _388  and  _390
REMARK  160  A    between atoms: _390  and  _391
REMARK  161  A    between atoms: _390  and  _393
REMARK  162  A    between atoms: _393  and  _394
REMARK  163  A    between atoms: _397  and  _399
REMARK  164  A    between atoms: _399  and  _400
REMARK  165  A    between atoms: _399  and  _402
REMARK  166  A    between atoms: _402  and  _403
REMARK  167  A    between atoms: _406  and  _408
REMARK  168  A    between atoms: _408  and  _409
REMARK  169  A    between atoms: _411  and  _413
REMARK  170  A    between atoms: _413  and  _414
REMARK  171  A    between atoms: _413  and  _416
REMARK  172  A    between atoms: _416  and  _417
REMARK  173  A    between atoms: _420  and  _422
REMARK  174  A    between atoms: _422  and  _423
REMARK  175  A    between atoms: _422  and  _425
REMARK  176  A    between atoms: _425  and  _426
REMARK  177  A    between atoms: _429  and  _431
REMARK  178  A    between atoms: _431  and  _432
REMARK  179  A    between atoms: _431  and  _434
REMARK  180  A    between atoms: _434  and  _435
REMARK  181  A    between atoms: _438  and  _440
REMARK  182  A    between atoms: _440  and  _441
REMARK  183  A    between atoms: _440  and  _443
REMARK  184  A    between atoms: _443  and  _444
REMARK  185  A    between atoms: _447  and  _449
REMARK  186  A    between atoms: _449  and  _450
REMARK  187  A    between atoms: _449  and  _452
REMARK  188  A    between atoms: _452  and  _453
REMARK  189  A    between atoms: _456  and  _458
REMARK  190  A    between atoms: _458  and  _459
REMARK  191  A    between atoms: _458  and  _461
REMARK  192  A    between atoms: _461  and  _462
REMARK  193  A    between atoms: _464  and  _466
REMARK  194  A    between atoms: _466  and  _467
REMARK  195  A    between atoms: _466  and  _469
REMARK  196  A    between atoms: _469  and  _470
REMARK  197  A    between atoms: _475  and  _477
REMARK  198  A    between atoms: _477  and  _478
REMARK  199  A    between atoms: _477  and  _480
REMARK  200  A    between atoms: _480  and  _481
REMARK  201  A    between atoms: _483  and  _485
REMARK  202  A    between atoms: _485  and  _486
REMARK  203  A    between atoms: _485  and  _488
REMARK  204  A    between atoms: _488  and  _489
REMARK  205  A    between atoms: _492  and  _494
REMARK  206  A    between atoms: _494  and  _495
REMARK  207  A    between atoms: _494  and  _497
REMARK  208  A    between atoms: _497  and  _498
REMARK  209  A    between atoms: _504  and  _506
REMARK  210  A    between atoms: _506  and  _507
REMARK  211  A    between atoms: _506  and  _509
REMARK  212  A    between atoms: _509  and  _510
REMARK  213  A    between atoms: _512  and  _514
REMARK  214  A    between atoms: _514  and  _515
REMARK  215  A    between atoms: _514  and  _517
REMARK  216  A    between atoms: _517  and  _518
REMARK  217  A    between atoms: _521  and  _523
REMARK  218  A    between atoms: _523  and  _524
REMARK  219  A    between atoms: _523  and  _526
REMARK  220  A    between atoms: _526  and  _527
REMARK  221  A    between atoms: _533  and  _535
REMARK  222  A    between atoms: _535  and  _536
REMARK  223  A    between atoms: _538  and  _540
REMARK  224  A    between atoms: _540  and  _541
REMARK  225  A    between atoms: _540  and  _543
REMARK  226  A    between atoms: _543  and  _544
REMARK  227  A    between atoms: _547  and  _549
REMARK  228  A    between atoms: _549  and  _550
REMARK  229  A    between atoms: _552  and  _554
REMARK  230  A    between atoms: _554  and  _555
REMARK  231  A    between atoms: _554  and  _557
REMARK  232  A    between atoms: _557  and  _558
REMARK  233  A    between atoms: _563  and  _564
REMARK  234  A    between atoms: _566  and  _568
REMARK  235  A    between atoms: _568  and  _569
REMARK  236  A    between atoms: _568  and  _571
REMARK  237  A    between atoms: _571  and  _572
REMARK  238  A    between atoms: _575  and  _577
REMARK  239  A    between atoms: _577  and  _578
REMARK  240  A    between atoms: _577  and  _580
REMARK  241  A    between atoms: _580  and  _581
REMARK  242  A    between atoms: _584  and  _586
REMARK  243  A    between atoms: _586  and  _587
REMARK  244  A    between atoms: _586  and  _589
REMARK  245  A    between atoms: _592  and  _594
REMARK  246  A    between atoms: _594  and  _595
REMARK  247  A    between atoms: _594  and  _597
REMARK  248  A    between atoms: _597  and  _598
REMARK  249  A    between atoms: _598  and  _599
REMARK  250  A    between atoms: _605  and  _606
REMARK  251  A    between atoms: _611  and  _613
REMARK  252  A    between atoms: _613  and  _614
REMARK  253  A    between atoms: _613  and  _616
REMARK  254  A    between atoms: _616  and  _617
REMARK  255  A    between atoms: _617  and  _618
REMARK                            x       y       z     vdW  Elec       q    Type
REMARK                         _______ _______ _______ _____ _____    ______ ____
ROOT
ATOM      1  CA  LEU A   2      29.048  18.794  16.251  0.00  0.00    +0.149 C 
ENDROOT
BRANCH   1   3
ATOM      2  C   GLY A   1      30.312  16.707  16.413  0.00  0.00    +0.240 C 
ATOM      3  N   LEU A   2      29.194  17.389  16.638  0.00  0.00    -0.297 N 
ATOM      4  H   LEU A   2      28.397  16.910  17.104  0.00  0.00    +0.150 HD
ATOM      5  O   GLY A   1      31.339  17.206  15.943  0.00  0.00    -0.274 OA
BRANCH   2   6
ATOM      6  CA  GLY A   1      30.300  15.249  16.893  0.00  0.00    +0.169 C 
BRANCH   6   7
ATOM      7  N   GLY A   1      30.977  14.354  15.957  0.00  0.00    -0.236 NA
ATOM      8  H   GLY A   1      31.944  14.037  16.169  0.00  0.00    +0.142 HD
ENDBRANCH   6   7
ENDBRANCH   2   6
ENDBRANCH   1   3
BRANCH   1   9
ATOM      9  C   LEU A   2      28.516  19.661  17.402  0.00  0.00    +0.241 C 
ATOM     10  N   ALA A   3      28.533  19.129  18.625  0.00  0.00    -0.298 N 
ATOM     11  H   ALA A   3      28.800  18.130  18.739  0.00  0.00    +0.150 HD
ATOM     12  O   LEU A   2      28.029  20.765  17.166  0.00  0.00    -0.273 OA
BRANCH  10  13
ATOM     13  CA  ALA A   3      28.185  19.914  19.812  0.00  0.00    +0.137 C 
ATOM     14  CB  ALA A   3      27.920  18.997  21.008  0.00  0.00    +0.030 C 
BRANCH  13  15
ATOM     15  C   ALA A   3      29.405  20.815  20.089  0.00  0.00    +0.227 C 
ATOM     16  O   ALA A   3      30.362  20.810  19.321  0.00  0.00    -0.286 OA
ENDBRANCH  13  15
ENDBRANCH  10  13
ENDBRANCH   1   9
BRANCH   1  17
ATOM     17  CB  LEU A   2      28.145  18.941  14.999  0.00  0.00    +0.029 C 
BRANCH  17  18
ATOM     18  CG  LEU A   2      28.753  18.380  13.705  0.00  0.00    +0.002 C 
ATOM     19  CD2 LEU A   2      29.936  19.244  13.245  0.00  0.00    +0.000 C 
ATOM     20  CD1 LEU A   2      27.696  18.284  12.603  0.00  0.00    +0.000 C 
ENDBRANCH  17  18
ENDBRANCH   1  17
TORSDOF 8
REMARK  Name = ../refined-set-2016/2web/2web_pocket.pdb
REMARK  255 active torsions:
REMARK  status: ('A' for Active; 'I' for Inactive)
REMARK    1  A    between atoms: _1  and  _3
REMARK    2  A    between atoms: _3  and  _4
REMARK    3  A    between atoms: _3  and  _6
REMARK    4  A    between atoms: _6  and  _7
REMARK    5  A    between atoms: _10  and  _12
REMARK    6  A    between atoms: _12  and  _13
REMARK    7  A    between atoms: _12  and  _15
REMARK    8  A    between atoms: _15  and  _16
REMARK    9  A    between atoms: _16  and  _17
REMARK   10  A    between atoms: _20  and  _22
REMARK   11  A    between atoms: _22  and  _23
REMARK   12  A    between atoms: _22  and  _25
REMARK   13  A    between atoms: _25  and  _26
REMARK   14  A    between atoms: _26  and  _27
REMARK   15  A    between atoms: _30  and  _32
REMARK   16  A    between atoms: _32  and  _33
REMARK   17  A    between atoms: _32  and  _35
REMARK   18  A    between atoms: _35  and  _36
REMARK   19  A    between atoms: _41  and  _42
REMARK   20  A    between atoms: _44  and  _46
REMARK   21  A    between atoms: _46  and  _47
REMARK   22  A    between atoms: _46  and  _49
REMARK   23  A    between atoms: _49  and  _50
REMARK   24  A    between atoms: _55  and  _57
REMARK   25  A    between atoms: _57  and  _58
REMARK   26  A    between atoms: _57  and  _60
REMARK   27  A    between atoms: _60  and  _61
REMARK   28  A    between atoms: _67  and  _69
REMARK   29  A    between atoms: _69  and  _70
REMARK   30  A    between atoms: _69  and  _72
REMARK   31  A    between atoms: _72  and  _73
REMARK   32  A    between atoms: _76  and  _78
REMARK   33  A    between atoms: _78  and  _79
REMARK   34  A    between atoms: _78  and  _81
REMARK   35  A    between atoms: _81  and  _82
REMARK   36  A    between atoms: _85  and  _87
REMARK   37  A    between atoms: _87  and  _88
REMARK   38  A    between atoms: _90  and  _92
REMARK   39  A    between atoms: _92  and  _93
REMARK   40  A    between atoms: _92  and  _95
REMARK   41  A    between atoms: _95  and  _96
REMARK   42  A    between atoms: _98  and  _100
REMARK   43  A    between atoms: _100  and  _101
REMARK   44  A    between atoms: _104  and  _106
REMARK   45  A    between atoms: _106  and  _107
REMARK   46  A    between atoms: _106  and  _109
REMARK   47  A    between atoms: _109  and  _110
REMARK   48  A    between atoms: _113  and  _115
REMARK   49  A    between atoms: _115  and  _116
REMARK   50  A    between atoms: _115  and  _118
REMARK   51  A    between atoms: _118  and  _119
REMARK   52  A    between atoms: _129  and  _131
REMARK   53  A    between atoms: _131  and  _132
REMARK   54  A    between atoms: _131  and  _134
REMARK   55  A    between atoms: _134  and  _135
REMARK   56  A    between atoms: _138  and  _140
REMARK   57  A    between atoms: _140  and  _141
REMARK   58  A    between atoms: _140  and  _143
REMARK   59  A    between atoms: _143  and  _144
REMARK   60  A    between atoms: _146  and  _148
REMARK   61  A    between atoms: _148  and  _149
REMARK   62  A    between atoms: _148  and  _151
REMARK   63  A    between atoms: _151  and  _152
REMARK   64  A    between atoms: _157  and  _158
REMARK   65  A    between atoms: _160  and  _162
REMARK   66  A    between atoms: _162  and  _163
REMARK   67  A    between atoms: _165  and  _167
REMARK   68  A    between atoms: _167  and  _168
REMARK   69  A    between atoms: _167  and  _170
REMARK   70  A    between atoms: _170  and  _171
REMARK   71  A    between atoms: _174  and  _176
REMARK   72  A    between atoms: _176  and  _177
REMARK   73  A    between atoms: _179  and  _181
REMARK   74  A    between atoms: _181  and  _182
REMARK   75  A    between atoms: _181  and  _184
REMARK   76  A    between atoms: _184  and  _185
REMARK   77  A    between atoms: _187  and  _189
REMARK   78  A    between atoms: _189  and  _190
REMARK   79  A    between atoms: _189  and  _192
REMARK   80  A    between atoms: _192  and  _193
REMARK   81  A    between atoms: _195  and  _197
REMARK   82  A    between atoms: _197  and  _198
REMARK   83  A    between atoms: _197  and  _200
REMARK   84  A    between atoms: _200  and  _201
REMARK   85  A    between atoms: _203  and  _205
REMARK   86  A    between atoms: _205  and  _206
REMARK   87  A    between atoms: _209  and  _211
REMARK   88  A    between atoms: _211  and  _212
REMARK   89  A    between atoms: _211  and  _214
REMARK   90  A    between atoms: _214  and  _215
REMARK   91  A    between atoms: _215  and  _216
REMARK   92  A    between atoms: _221  and  _223
REMARK   93  A    between atoms: _223  and  _224
REMARK   94  A    between atoms: _223  and  _226
REMARK   95  A    between atoms: _226  and  _227
REMARK   96  A    between atoms: _233  and  _235
REMARK   97  A    between atoms: _235  and  _236
REMARK   98  A    between atoms: _235  and  _238
REMARK   99  A    between atoms: _238  and  _239
REMARK  100  A    between atoms: _239  and  _240
REMARK  101  A    between atoms: _245  and  _247
REMARK  102  A    between atoms: _247  and  _248
REMARK  103  A    between atoms: _247  and  _250
REMARK  104  A    between atoms: _250  and  _251
REMARK  105  A    between atoms: _251  and  _252
REMARK  106  A    between atoms: _257  and  _259
REMARK  107  A    between atoms: _259  and  _260
REMARK  108  A    between atoms: _259  and  _262
REMARK  109  A    between atoms: _262  and  _263
REMARK  110  A    between atoms: _266  and  _268
REMARK  111  A    between atoms: _268  and  _269
REMARK  112  A    between atoms: _268  and  _271
REMARK  113  A    between atoms: _271  and  _272
REMARK  114  A    between atoms: _275  and  _277
REMARK  115  A    between atoms: _277  and  _278
REMARK  116  A    between atoms: _277  and  _280
REMARK  117  A    between atoms: _280  and  _281
REMARK  118  A    between atoms: _286  and  _288
REMARK  119  A    between atoms: _288  and  _289
REMARK  120  A    between atoms: _288  and  _291
REMARK  121  A    between atoms: _291  and  _292
REMARK  122  A    between atoms: _297  and  _299
REMARK  123  A    between atoms: _299  and  _300
REMARK  124  A    between atoms: _302  and  _304
REMARK  125  A    between atoms: _304  and  _305
REMARK  126  A    between atoms: _304  and  _307
REMARK  127  A    between atoms: _307  and  _308
REMARK  128  A    between atoms: _311  and  _313
REMARK  129  A    between atoms: _313  and  _314
REMARK  130  A    between atoms: _316  and  _318
REMARK  131  A    between atoms: _318  and  _319
REMARK  132  A    between atoms: _318  and  _321
REMARK  133  A    between atoms: _321  and  _322
REMARK  134  A    between atoms: _325  and  _327
REMARK  135  A    between atoms: _327  and  _328
REMARK  136  A    between atoms: _331  and  _333
REMARK  137  A    between atoms: _333  and  _334
REMARK  138  A    between atoms: _333  and  _336
REMARK  139  A    between atoms: _336  and  _337
REMARK  140  A    between atoms: _340  and  _342
REMARK  141  A    between atoms: _342  and  _343
REMARK  142  A    between atoms: _342  and  _345
REMARK  143  A    between atoms: _345  and  _346
REMARK  144  A    between atoms: _349  and  _351
REMARK  145  A    between atoms: _351  and  _352
REMARK  146  A    between atoms: _351  and  _354
REMARK  147  A    between atoms: _354  and  _355
REMARK  148  A    between atoms: _355  and  _356
REMARK  149  A    between atoms: _361  and  _363
REMARK  150  A    between atoms: _363  and  _364
REMARK  151  A    between atoms: _363  and  _366
REMARK  152  A    between atoms: _366  and  _367
REMARK  153  A    between atoms: _373  and  _375
REMARK  154  A    between atoms: _375  and  _376
REMARK  155  A    between atoms: _375  and  _378
REMARK  156  A    between atoms: _378  and  _379
REMARK  157  A    between atoms: _382  and  _384
REMARK  158  A    between atoms: _384  and  _385
REMARK  159  A    between atoms: _388  and  _390
REMARK  160  A    between atoms: _390  and  _391
REMARK  161  A    between atoms: _390  and  _393
REMARK  162  A    between atoms: _393  and  _394
REMARK  163  A    between atoms: _397  and  _399
REMARK  164  A    between atoms: _399  and  _400
REMARK  165  A    between atoms: _399  and  _402
REMARK  166  A    between atoms: _402  and  _403
REMARK  167  A    between atoms: _406  and  _408
REMARK  168  A    between atoms: _408  and  _409
REMARK  169  A    between atoms: _411  and  _413
REMARK  170  A    between atoms: _413  and  _414
REMARK  171  A    between atoms: _413  and  _416
REMARK  172  A    between atoms: _416  and  _417
REMARK  173  A    between atoms: _420  and  _422
REMARK  174  A    between atoms: _422  and  _423
REMARK  175  A    between atoms: _422  and  _425
REMARK  176  A    between atoms: _425  and  _426
REMARK  177  A    between atoms: _429  and  _431
REMARK  178  A    between atoms: _431  and  _432
REMARK  179  A    between atoms: _431  and  _434
REMARK  180  A    between atoms: _434  and  _435
REMARK  181  A    between atoms: _438  and  _440
REMARK  182  A    between atoms: _440  and  _441
REMARK  183  A    between atoms: _440  and  _443
REMARK  184  A    between atoms: _443  and  _444
REMARK  185  A    between atoms: _447  and  _449
REMARK  186  A    between atoms: _449  and  _450
REMARK  187  A    between atoms: _449  and  _452
REMARK  188  A    between atoms: _452  and  _453
REMARK  189  A    between atoms: _456  and  _458
REMARK  190  A    between atoms: _458  and  _459
REMARK  191  A    between atoms: _458  and  _461
REMARK  192  A    between atoms: _461  and  _462
REMARK  193  A    between atoms: _464  and  _466
REMARK  194  A    between atoms: _466  and  _467
REMARK  195  A    between atoms: _466  and  _469
REMARK  196  A    between atoms: _469  and  _470
REMARK  197  A    between atoms: _475  and  _477
REMARK  198  A    between atoms: _477  and  _478
REMARK  199  A    between atoms: _477  and  _480
REMARK  200  A    between atoms: _480  and  _481
REMARK  201  A    between atoms: _483  and  _485
REMARK  202  A    between atoms: _485  and  _486
REMARK  203  A    between atoms: _485  and  _488
REMARK  204  A    between atoms: _488  and  _489
REMARK  205  A    between atoms: _492  and  _494
REMARK  206  A    between atoms: _494  and  _495
REMARK  207  A    between atoms: _494  and  _497
REMARK  208  A    between atoms: _497  and  _498
REMARK  209  A    between atoms: _504  and  _506
REMARK  210  A    between atoms: _506  and  _507
REMARK  211  A    between atoms: _506  and  _509
REMARK  212  A    between atoms: _509  and  _510
REMARK  213  A    between atoms: _512  and  _514
REMARK  214  A    between atoms: _514  and  _515
REMARK  215  A    between atoms: _514  and  _517
REMARK  216  A    between atoms: _517  and  _518
REMARK  217  A    between atoms: _521  and  _523
REMARK  218  A    between atoms: _523  and  _524
REMARK  219  A    between atoms: _523  and  _526
REMARK  220  A    between atoms: _526  and  _527
REMARK  221  A    between atoms: _533  and  _535
REMARK  222  A    between atoms: _535  and  _536
REMARK  223  A    between atoms: _538  and  _540
REMARK  224  A    between atoms: _540  and  _541
REMARK  225  A    between atoms: _540  and  _543
REMARK  226  A    between atoms: _543  and  _544
REMARK  227  A    between atoms: _547  and  _549
REMARK  228  A    between atoms: _549  and  _550
REMARK  229  A    between atoms: _552  and  _554
REMARK  230  A    between atoms: _554  and  _555
REMARK  231  A    between atoms: _554  and  _557
REMARK  232  A    between atoms: _557  and  _558
REMARK  233  A    between atoms: _563  and  _564
REMARK  234  A    between atoms: _566  and  _568
REMARK  235  A    between atoms: _568  and  _569
REMARK  236  A    between atoms: _568  and  _571
REMARK  237  A    between atoms: _571  and  _572
REMARK  238  A    between atoms: _575  and  _577
REMARK  239  A    between atoms: _577  and  _578
REMARK  240  A    between atoms: _577  and  _580
REMARK  241  A    between atoms: _580  and  _581
REMARK  242  A    between atoms: _584  and  _586
REMARK  243  A    between atoms: _586  and  _587
REMARK  244  A    between atoms: _586  and  _589
REMARK  245  A    between atoms: _592  and  _594
REMARK  246  A    between atoms: _594  and  _595
REMARK  247  A    between atoms: _594  and  _597
REMARK  248  A    between atoms: _597  and  _598
REMARK  249  A    between atoms: _598  and  _599
REMARK  250  A    between atoms: _605  and  _606
REMARK  251  A    between atoms: _611  and  _613
REMARK  252  A    between atoms: _613  and  _614
REMARK  253  A    between atoms: _613  and  _616
REMARK  254  A    between atoms: _616  and  _617
REMARK  255  A    between atoms: _617  and  _618
REMARK                            x       y       z     vdW  Elec       q    Type
REMARK                         _______ _______ _______ _____ _____    ______ ____
ROOT
ATOM      1  CA  ILE A   1      32.409  18.518  26.051  0.00  0.00    +0.133 C 
ENDROOT
BRANCH   1   2
ATOM      2  N   ILE A   1      32.761  19.854  25.588  0.00  0.00    -0.239 NA
ATOM      3  H   ILE A   1      32.339  20.215  24.708  0.00  0.00    +0.142 HD
ENDBRANCH   1   2
BRANCH   1   4
ATOM      4  CB  ILE A   1      30.901  18.272  26.186  0.00  0.00    +0.023 C 
ATOM      5  CG2 ILE A   1      30.335  19.240  27.210  0.00  0.00    +0.002 C 
BRANCH   4   6
ATOM      6  CG1 ILE A   1      30.195  18.376  24.815  0.00  0.00    +0.002 C 
ATOM      7  CD1 ILE A   1      28.742  17.968  24.854  0.00  0.00    +0.000 C 
ENDBRANCH   4   6
ENDBRANCH   1   4
BRANCH   1   8
ATOM      8  C   ILE A   1      33.136  17.369  25.347  0.00  0.00    +0.224 C 
ATOM      9  O   ILE A   1      32.748  16.224  25.511  0.00  0.00    -0.287 OA
ENDBRANCH   1   8
TORSDOF 4
REMARK  Name = ../refined-set-2016/2web/2web_pocket.pdb
REMARK  255 active torsions:
REMARK  status: ('A' for Active; 'I' for Inactive)
REMARK    1  A    between atoms: _1  and  _3
REMARK    2  A    between atoms: _3  and  _4
REMARK    3  A    between atoms: _3  and  _6
REMARK    4  A    between atoms: _6  and  _7
REMARK    5  A    between atoms: _10  and  _12
REMARK    6  A    between atoms: _12  and  _13
REMARK    7  A    between atoms: _12  and  _15
REMARK    8  A    between atoms: _15  and  _16
REMARK    9  A    between atoms: _16  and  _17
REMARK   10  A    between atoms: _20  and  _22
REMARK   11  A    between atoms: _22  and  _23
REMARK   12  A    between atoms: _22  and  _25
REMARK   13  A    between atoms: _25  and  _26
REMARK   14  A    between atoms: _26  and  _27
REMARK   15  A    between atoms: _30  and  _32
REMARK   16  A    between atoms: _32  and  _33
REMARK   17  A    between atoms: _32  and  _35
REMARK   18  A    between atoms: _35  and  _36
REMARK   19  A    between atoms: _41  and  _42
REMARK   20  A    between atoms: _44  and  _46
REMARK   21  A    between atoms: _46  and  _47
REMARK   22  A    between atoms: _46  and  _49
REMARK   23  A    between atoms: _49  and  _50
REMARK   24  A    between atoms: _55  and  _57
REMARK   25  A    between atoms: _57  and  _58
REMARK   26  A    between atoms: _57  and  _60
REMARK   27  A    between atoms: _60  and  _61
REMARK   28  A    between atoms: _67  and  _69
REMARK   29  A    between atoms: _69  and  _70
REMARK   30  A    between atoms: _69  and  _72
REMARK   31  A    between atoms: _72  and  _73
REMARK   32  A    between atoms: _76  and  _78
REMARK   33  A    between atoms: _78  and  _79
REMARK   34  A    between atoms: _78  and  _81
REMARK   35  A    between atoms: _81  and  _82
REMARK   36  A    between atoms: _85  and  _87
REMARK   37  A    between atoms: _87  and  _88
REMARK   38  A    between atoms: _90  and  _92
REMARK   39  A    between atoms: _92  and  _93
REMARK   40  A    between atoms: _92  and  _95
REMARK   41  A    between atoms: _95  and  _96
REMARK   42  A    between atoms: _98  and  _100
REMARK   43  A    between atoms: _100  and  _101
REMARK   44  A    between atoms: _104  and  _106
REMARK   45  A    between atoms: _106  and  _107
REMARK   46  A    between atoms: _106  and  _109
REMARK   47  A    between atoms: _109  and  _110
REMARK   48  A    between atoms: _113  and  _115
REMARK   49  A    between atoms: _115  and  _116
REMARK   50  A    between atoms: _115  and  _118
REMARK   51  A    between atoms: _118  and  _119
REMARK   52  A    between atoms: _129  and  _131
REMARK   53  A    between atoms: _131  and  _132
REMARK   54  A    between atoms: _131  and  _134
REMARK   55  A    between atoms: _134  and  _135
REMARK   56  A    between atoms: _138  and  _140
REMARK   57  A    between atoms: _140  and  _141
REMARK   58  A    between atoms: _140  and  _143
REMARK   59  A    between atoms: _143  and  _144
REMARK   60  A    between atoms: _146  and  _148
REMARK   61  A    between atoms: _148  and  _149
REMARK   62  A    between atoms: _148  and  _151
REMARK   63  A    between atoms: _151  and  _152
REMARK   64  A    between atoms: _157  and  _158
REMARK   65  A    between atoms: _160  and  _162
REMARK   66  A    between atoms: _162  and  _163
REMARK   67  A    between atoms: _165  and  _167
REMARK   68  A    between atoms: _167  and  _168
REMARK   69  A    between atoms: _167  and  _170
REMARK   70  A    between atoms: _170  and  _171
REMARK   71  A    between atoms: _174  and  _176
REMARK   72  A    between atoms: _176  and  _177
REMARK   73  A    between atoms: _179  and  _181
REMARK   74  A    between atoms: _181  and  _182
REMARK   75  A    between atoms: _181  and  _184
REMARK   76  A    between atoms: _184  and  _185
REMARK   77  A    between atoms: _187  and  _189
REMARK   78  A    between atoms: _189  and  _190
REMARK   79  A    between atoms: _189  and  _192
REMARK   80  A    between atoms: _192  and  _193
REMARK   81  A    between atoms: _195  and  _197
REMARK   82  A    between atoms: _197  and  _198
REMARK   83  A    between atoms: _197  and  _200
REMARK   84  A    between atoms: _200  and  _201
REMARK   85  A    between atoms: _203  and  _205
REMARK   86  A    between atoms: _205  and  _206
REMARK   87  A    between atoms: _209  and  _211
REMARK   88  A    between atoms: _211  and  _212
REMARK   89  A    between atoms: _211  and  _214
REMARK   90  A    between atoms: _214  and  _215
REMARK   91  A    between atoms: _215  and  _216
REMARK   92  A    between atoms: _221  and  _223
REMARK   93  A    between atoms: _223  and  _224
REMARK   94  A    between atoms: _223  and  _226
REMARK   95  A    between atoms: _226  and  _227
REMARK   96  A    between atoms: _233  and  _235
REMARK   97  A    between atoms: _235  and  _236
REMARK   98  A    between atoms: _235  and  _238
REMARK   99  A    between atoms: _238  and  _239
REMARK  100  A    between atoms: _239  and  _240
REMARK  101  A    between atoms: _245  and  _247
REMARK  102  A    between atoms: _247  and  _248
REMARK  103  A    between atoms: _247  and  _250
REMARK  104  A    between atoms: _250  and  _251
REMARK  105  A    between atoms: _251  and  _252
REMARK  106  A    between atoms: _257  and  _259
REMARK  107  A    between atoms: _259  and  _260
REMARK  108  A    between atoms: _259  and  _262
REMARK  109  A    between atoms: _262  and  _263
REMARK  110  A    between atoms: _266  and  _268
REMARK  111  A    between atoms: _268  and  _269
REMARK  112  A    between atoms: _268  and  _271
REMARK  113  A    between atoms: _271  and  _272
REMARK  114  A    between atoms: _275  and  _277
REMARK  115  A    between atoms: _277  and  _278
REMARK  116  A    between atoms: _277  and  _280
REMARK  117  A    between atoms: _280  and  _281
REMARK  118  A    between atoms: _286  and  _288
REMARK  119  A    between atoms: _288  and  _289
REMARK  120  A    between atoms: _288  and  _291
REMARK  121  A    between atoms: _291  and  _292
REMARK  122  A    between atoms: _297  and  _299
REMARK  123  A    between atoms: _299  and  _300
REMARK  124  A    between atoms: _302  and  _304
REMARK  125  A    between atoms: _304  and  _305
REMARK  126  A    between atoms: _304  and  _307
REMARK  127  A    between atoms: _307  and  _308
REMARK  128  A    between atoms: _311  and  _313
REMARK  129  A    between atoms: _313  and  _314
REMARK  130  A    between atoms: _316  and  _318
REMARK  131  A    between atoms: _318  and  _319
REMARK  132  A    between atoms: _318  and  _321
REMARK  133  A    between atoms: _321  and  _322
REMARK  134  A    between atoms: _325  and  _327
REMARK  135  A    between atoms: _327  and  _328
REMARK  136  A    between atoms: _331  and  _333
REMARK  137  A    between atoms: _333  and  _334
REMARK  138  A    between atoms: _333  and  _336
REMARK  139  A    between atoms: _336  and  _337
REMARK  140  A    between atoms: _340  and  _342
REMARK  141  A    between atoms: _342  and  _343
REMARK  142  A    between atoms: _342  and  _345
REMARK  143  A    between atoms: _345  and  _346
REMARK  144  A    between atoms: _349  and  _351
REMARK  145  A    between atoms: _351  and  _352
REMARK  146  A    between atoms: _351  and  _354
REMARK  147  A    between atoms: _354  and  _355
REMARK  148  A    between atoms: _355  and  _356
REMARK  149  A    between atoms: _361  and  _363
REMARK  150  A    between atoms: _363  and  _364
REMARK  151  A    between atoms: _363  and  _366
REMARK  152  A    between atoms: _366  and  _367
REMARK  153  A    between atoms: _373  and  _375
REMARK  154  A    between atoms: _375  and  _376
REMARK  155  A    between atoms: _375  and  _378
REMARK  156  A    between atoms: _378  and  _379
REMARK  157  A    between atoms: _382  and  _384
REMARK  158  A    between atoms: _384  and  _385
REMARK  159  A    between atoms: _388  and  _390
REMARK  160  A    between atoms: _390  and  _391
REMARK  161  A    between atoms: _390  and  _393
REMARK  162  A    between atoms: _393  and  _394
REMARK  163  A    between atoms: _397  and  _399
REMARK  164  A    between atoms: _399  and  _400
REMARK  165  A    between atoms: _399  and  _402
REMARK  166  A    between atoms: _402  and  _403
REMARK  167  A    between atoms: _406  and  _408
REMARK  168  A    between atoms: _408  and  _409
REMARK  169  A    between atoms: _411  and  _413
REMARK  170  A    between atoms: _413  and  _414
REMARK  171  A    between atoms: _413  and  _416
REMARK  172  A    between atoms: _416  and  _417
REMARK  173  A    between atoms: _420  and  _422
REMARK  174  A    between atoms: _422  and  _423
REMARK  175  A    between atoms: _422  and  _425
REMARK  176  A    between atoms: _425  and  _426
REMARK  177  A    between atoms: _429  and  _431
REMARK  178  A    between atoms: _431  and  _432
REMARK  179  A    between atoms: _431  and  _434
REMARK  180  A    between atoms: _434  and  _435
REMARK  181  A    between atoms: _438  and  _440
REMARK  182  A    between atoms: _440  and  _441
REMARK  183  A    between atoms: _440  and  _443
REMARK  184  A    between atoms: _443  and  _444
REMARK  185  A    between atoms: _447  and  _449
REMARK  186  A    between atoms: _449  and  _450
REMARK  187  A    between atoms: _449  and  _452
REMARK  188  A    between atoms: _452  and  _453
REMARK  189  A    between atoms: _456  and  _458
REMARK  190  A    between atoms: _458  and  _459
REMARK  191  A    between atoms: _458  and  _461
REMARK  192  A    between atoms: _461  and  _462
REMARK  193  A    between atoms: _464  and  _466
REMARK  194  A    between atoms: _466  and  _467
REMARK  195  A    between atoms: _466  and  _469
REMARK  196  A    between atoms: _469  and  _470
REMARK  197  A    between atoms: _475  and  _477
REMARK  198  A    between atoms: _477  and  _478
REMARK  199  A    between atoms: _477  and  _480
REMARK  200  A    between atoms: _480  and  _481
REMARK  201  A    between atoms: _483  and  _485
REMARK  202  A    between atoms: _485  and  _486
REMARK  203  A    between atoms: _485  and  _488
REMARK  204  A    between atoms: _488  and  _489
REMARK  205  A    between atoms: _492  and  _494
REMARK  206  A    between atoms: _494  and  _495
REMARK  207  A    between atoms: _494  and  _497
REMARK  208  A    between atoms: _497  and  _498
REMARK  209  A    between atoms: _504  and  _506
REMARK  210  A    between atoms: _506  and  _507
REMARK  211  A    between atoms: _506  and  _509
REMARK  212  A    between atoms: _509  and  _510
REMARK  213  A    between atoms: _512  and  _514
REMARK  214  A    between atoms: _514  and  _515
REMARK  215  A    between atoms: _514  and  _517
REMARK  216  A    between atoms: _517  and  _518
REMARK  217  A    between atoms: _521  and  _523
REMARK  218  A    between atoms: _523  and  _524
REMARK  219  A    between atoms: _523  and  _526
REMARK  220  A    between atoms: _526  and  _527
REMARK  221  A    between atoms: _533  and  _535
REMARK  222  A    between atoms: _535  and  _536
REMARK  223  A    between atoms: _538  and  _540
REMARK  224  A    between atoms: _540  and  _541
REMARK  225  A    between atoms: _540  and  _543
REMARK  226  A    between atoms: _543  and  _544
REMARK  227  A    between atoms: _547  and  _549
REMARK  228  A    between atoms: _549  and  _550
REMARK  229  A    between atoms: _552  and  _554
REMARK  230  A    between atoms: _554  and  _555
REMARK  231  A    between atoms: _554  and  _557
REMARK  232  A    between atoms: _557  and  _558
REMARK  233  A    between atoms: _563  and  _564
REMARK  234  A    between atoms: _566  and  _568
REMARK  235  A    between atoms: _568  and  _569
REMARK  236  A    between atoms: _568  and  _571
REMARK  237  A    between atoms: _571  and  _572
REMARK  238  A    between atoms: _575  and  _577
REMARK  239  A    between atoms: _577  and  _578
REMARK  240  A    between atoms: _577  and  _580
REMARK  241  A    between atoms: _580  and  _581
REMARK  242  A    between atoms: _584  and  _586
REMARK  243  A    between atoms: _586  and  _587
REMARK  244  A    between atoms: _586  and  _589
REMARK  245  A    between atoms: _592  and  _594
REMARK  246  A    between atoms: _594  and  _595
REMARK  247  A    between atoms: _594  and  _597
REMARK  248  A    between atoms: _597  and  _598
REMARK  249  A    between atoms: _598  and  _599
REMARK  250  A    between atoms: _605  and  _606
REMARK  251  A    between atoms: _611  and  _613
REMARK  252  A    between atoms: _613  and  _614
REMARK  253  A    between atoms: _613  and  _616
REMARK  254  A    between atoms: _616  and  _617
REMARK  255  A    between atoms: _617  and  _618
REMARK                            x       y       z     vdW  Elec       q    Type
REMARK                         _______ _______ _______ _____ _____    ______ ____
ROOT
ATOM      1  CA  THR A   1      36.093  13.584  25.987  0.00  0.00    +0.160 C 
ENDROOT
BRANCH   1   2
ATOM      2  N   THR A   1      35.591  14.471  24.935  0.00  0.00    -0.237 NA
ATOM      3  H   THR A   1      35.222  14.048  24.060  0.00  0.00    +0.142 HD
ENDBRANCH   1   2
BRANCH   1   4
ATOM      4  CB  THR A   1      35.329  12.233  26.014  0.00  0.00    +0.134 C 
ATOM      5  CG2 THR A   1      33.794  12.453  25.960  0.00  0.00    +0.034 C 
BRANCH   4   6
ATOM      6  OG1 THR A   1      35.752  11.408  24.928  0.00  0.00    -0.383 OA
ATOM      7  HG1 THR A   1      35.566  11.870  24.072  0.00  0.00    +0.210 HD
ENDBRANCH   4   6
ENDBRANCH   1   4
BRANCH   1   8
ATOM      8  C   THR A   1      37.596  13.264  25.995  0.00  0.00    +0.227 C 
ATOM      9  O   THR A   1      38.041  12.511  26.868  0.00  0.00    -0.287 OA
ENDBRANCH   1   8
TORSDOF 4
REMARK  Name = ../refined-set-2016/2web/2web_pocket.pdb
REMARK  255 active torsions:
REMARK  status: ('A' for Active; 'I' for Inactive)
REMARK    1  A    between atoms: _1  and  _3
REMARK    2  A    between atoms: _3  and  _4
REMARK    3  A    between atoms: _3  and  _6
REMARK    4  A    between atoms: _6  and  _7
REMARK    5  A    between atoms: _10  and  _12
REMARK    6  A    between atoms: _12  and  _13
REMARK    7  A    between atoms: _12  and  _15
REMARK    8  A    between atoms: _15  and  _16
REMARK    9  A    between atoms: _16  and  _17
REMARK   10  A    between atoms: _20  and  _22
REMARK   11  A    between atoms: _22  and  _23
REMARK   12  A    between atoms: _22  and  _25
REMARK   13  A    between atoms: _25  and  _26
REMARK   14  A    between atoms: _26  and  _27
REMARK   15  A    between atoms: _30  and  _32
REMARK   16  A    between atoms: _32  and  _33
REMARK   17  A    between atoms: _32  and  _35
REMARK   18  A    between atoms: _35  and  _36
REMARK   19  A    between atoms: _41  and  _42
REMARK   20  A    between atoms: _44  and  _46
REMARK   21  A    between atoms: _46  and  _47
REMARK   22  A    between atoms: _46  and  _49
REMARK   23  A    between atoms: _49  and  _50
REMARK   24  A    between atoms: _55  and  _57
REMARK   25  A    between atoms: _57  and  _58
REMARK   26  A    between atoms: _57  and  _60
REMARK   27  A    between atoms: _60  and  _61
REMARK   28  A    between atoms: _67  and  _69
REMARK   29  A    between atoms: _69  and  _70
REMARK   30  A    between atoms: _69  and  _72
REMARK   31  A    between atoms: _72  and  _73
REMARK   32  A    between atoms: _76  and  _78
REMARK   33  A    between atoms: _78  and  _79
REMARK   34  A    between atoms: _78  and  _81
REMARK   35  A    between atoms: _81  and  _82
REMARK   36  A    between atoms: _85  and  _87
REMARK   37  A    between atoms: _87  and  _88
REMARK   38  A    between atoms: _90  and  _92
REMARK   39  A    between atoms: _92  and  _93
REMARK   40  A    between atoms: _92  and  _95
REMARK   41  A    between atoms: _95  and  _96
REMARK   42  A    between atoms: _98  and  _100
REMARK   43  A    between atoms: _100  and  _101
REMARK   44  A    between atoms: _104  and  _106
REMARK   45  A    between atoms: _106  and  _107
REMARK   46  A    between atoms: _106  and  _109
REMARK   47  A    between atoms: _109  and  _110
REMARK   48  A    between atoms: _113  and  _115
REMARK   49  A    between atoms: _115  and  _116
REMARK   50  A    between atoms: _115  and  _118
REMARK   51  A    between atoms: _118  and  _119
REMARK   52  A    between atoms: _129  and  _131
REMARK   53  A    between atoms: _131  and  _132
REMARK   54  A    between atoms: _131  and  _134
REMARK   55  A    between atoms: _134  and  _135
REMARK   56  A    between atoms: _138  and  _140
REMARK   57  A    between atoms: _140  and  _141
REMARK   58  A    between atoms: _140  and  _143
REMARK   59  A    between atoms: _143  and  _144
REMARK   60  A    between atoms: _146  and  _148
REMARK   61  A    between atoms: _148  and  _149
REMARK   62  A    between atoms: _148  and  _151
REMARK   63  A    between atoms: _151  and  _152
REMARK   64  A    between atoms: _157  and  _158
REMARK   65  A    between atoms: _160  and  _162
REMARK   66  A    between atoms: _162  and  _163
REMARK   67  A    between atoms: _165  and  _167
REMARK   68  A    between atoms: _167  and  _168
REMARK   69  A    between atoms: _167  and  _170
REMARK   70  A    between atoms: _170  and  _171
REMARK   71  A    between atoms: _174  and  _176
REMARK   72  A    between atoms: _176  and  _177
REMARK   73  A    between atoms: _179  and  _181
REMARK   74  A    between atoms: _181  and  _182
REMARK   75  A    between atoms: _181  and  _184
REMARK   76  A    between atoms: _184  and  _185
REMARK   77  A    between atoms: _187  and  _189
REMARK   78  A    between atoms: _189  and  _190
REMARK   79  A    between atoms: _189  and  _192
REMARK   80  A    between atoms: _192  and  _193
REMARK   81  A    between atoms: _195  and  _197
REMARK   82  A    between atoms: _197  and  _198
REMARK   83  A    between atoms: _197  and  _200
REMARK   84  A    between atoms: _200  and  _201
REMARK   85  A    between atoms: _203  and  _205
REMARK   86  A    between atoms: _205  and  _206
REMARK   87  A    between atoms: _209  and  _211
REMARK   88  A    between atoms: _211  and  _212
REMARK   89  A    between atoms: _211  and  _214
REMARK   90  A    between atoms: _214  and  _215
REMARK   91  A    between atoms: _215  and  _216
REMARK   92  A    between atoms: _221  and  _223
REMARK   93  A    between atoms: _223  and  _224
REMARK   94  A    between atoms: _223  and  _226
REMARK   95  A    between atoms: _226  and  _227
REMARK   96  A    between atoms: _233  and  _235
REMARK   97  A    between atoms: _235  and  _236
REMARK   98  A    between atoms: _235  and  _238
REMARK   99  A    between atoms: _238  and  _239
REMARK  100  A    between atoms: _239  and  _240
REMARK  101  A    between atoms: _245  and  _247
REMARK  102  A    between atoms: _247  and  _248
REMARK  103  A    between atoms: _247  and  _250
REMARK  104  A    between atoms: _250  and  _251
REMARK  105  A    between atoms: _251  and  _252
REMARK  106  A    between atoms: _257  and  _259
REMARK  107  A    between atoms: _259  and  _260
REMARK  108  A    between atoms: _259  and  _262
REMARK  109  A    between atoms: _262  and  _263
REMARK  110  A    between atoms: _266  and  _268
REMARK  111  A    between atoms: _268  and  _269
REMARK  112  A    between atoms: _268  and  _271
REMARK  113  A    between atoms: _271  and  _272
REMARK  114  A    between atoms: _275  and  _277
REMARK  115  A    between atoms: _277  and  _278
REMARK  116  A    between atoms: _277  and  _280
REMARK  117  A    between atoms: _280  and  _281
REMARK  118  A    between atoms: _286  and  _288
REMARK  119  A    between atoms: _288  and  _289
REMARK  120  A    between atoms: _288  and  _291
REMARK  121  A    between atoms: _291  and  _292
REMARK  122  A    between atoms: _297  and  _299
REMARK  123  A    between atoms: _299  and  _300
REMARK  124  A    between atoms: _302  and  _304
REMARK  125  A    between atoms: _304  and  _305
REMARK  126  A    between atoms: _304  and  _307
REMARK  127  A    between atoms: _307  and  _308
REMARK  128  A    between atoms: _311  and  _313
REMARK  129  A    between atoms: _313  and  _314
REMARK  130  A    between atoms: _316  and  _318
REMARK  131  A    between atoms: _318  and  _319
REMARK  132  A    between atoms: _318  and  _321
REMARK  133  A    between atoms: _321  and  _322
REMARK  134  A    between atoms: _325  and  _327
REMARK  135  A    between atoms: _327  and  _328
REMARK  136  A    between atoms: _331  and  _333
REMARK  137  A    between atoms: _333  and  _334
REMARK  138  A    between atoms: _333  and  _336
REMARK  139  A    between atoms: _336  and  _337
REMARK  140  A    between atoms: _340  and  _342
REMARK  141  A    between atoms: _342  and  _343
REMARK  142  A    between atoms: _342  and  _345
REMARK  143  A    between atoms: _345  and  _346
REMARK  144  A    between atoms: _349  and  _351
REMARK  145  A    between atoms: _351  and  _352
REMARK  146  A    between atoms: _351  and  _354
REMARK  147  A    between atoms: _354  and  _355
REMARK  148  A    between atoms: _355  and  _356
REMARK  149  A    between atoms: _361  and  _363
REMARK  150  A    between atoms: _363  and  _364
REMARK  151  A    between atoms: _363  and  _366
REMARK  152  A    between atoms: _366  and  _367
REMARK  153  A    between atoms: _373  and  _375
REMARK  154  A    between atoms: _375  and  _376
REMARK  155  A    between atoms: _375  and  _378
REMARK  156  A    between atoms: _378  and  _379
REMARK  157  A    between atoms: _382  and  _384
REMARK  158  A    between atoms: _384  and  _385
REMARK  159  A    between atoms: _388  and  _390
REMARK  160  A    between atoms: _390  and  _391
REMARK  161  A    between atoms: _390  and  _393
REMARK  162  A    between atoms: _393  and  _394
REMARK  163  A    between atoms: _397  and  _399
REMARK  164  A    between atoms: _399  and  _400
REMARK  165  A    between atoms: _399  and  _402
REMARK  166  A    between atoms: _402  and  _403
REMARK  167  A    between atoms: _406  and  _408
REMARK  168  A    between atoms: _408  and  _409
REMARK  169  A    between atoms: _411  and  _413
REMARK  170  A    between atoms: _413  and  _414
REMARK  171  A    between atoms: _413  and  _416
REMARK  172  A    between atoms: _416  and  _417
REMARK  173  A    between atoms: _420  and  _422
REMARK  174  A    between atoms: _422  and  _423
REMARK  175  A    between atoms: _422  and  _425
REMARK  176  A    between atoms: _425  and  _426
REMARK  177  A    between atoms: _429  and  _431
REMARK  178  A    between atoms: _431  and  _432
REMARK  179  A    between atoms: _431  and  _434
REMARK  180  A    between atoms: _434  and  _435
REMARK  181  A    between atoms: _438  and  _440
REMARK  182  A    between atoms: _440  and  _441
REMARK  183  A    between atoms: _440  and  _443
REMARK  184  A    between atoms: _443  and  _444
REMARK  185  A    between atoms: _447  and  _449
REMARK  186  A    between atoms: _449  and  _450
REMARK  187  A    between atoms: _449  and  _452
REMARK  188  A    between atoms: _452  and  _453
REMARK  189  A    between atoms: _456  and  _458
REMARK  190  A    between atoms: _458  and  _459
REMARK  191  A    between atoms: _458  and  _461
REMARK  192  A    between atoms: _461  and  _462
REMARK  193  A    between atoms: _464  and  _466
REMARK  194  A    between atoms: _466  and  _467
REMARK  195  A    between atoms: _466  and  _469
REMARK  196  A    between atoms: _469  and  _470
REMARK  197  A    between atoms: _475  and  _477
REMARK  198  A    between atoms: _477  and  _478
REMARK  199  A    between atoms: _477  and  _480
REMARK  200  A    between atoms: _480  and  _481
REMARK  201  A    between atoms: _483  and  _485
REMARK  202  A    between atoms: _485  and  _486
REMARK  203  A    between atoms: _485  and  _488
REMARK  204  A    between atoms: _488  and  _489
REMARK  205  A    between atoms: _492  and  _494
REMARK  206  A    between atoms: _494  and  _495
REMARK  207  A    between atoms: _494  and  _497
REMARK  208  A    between atoms: _497  and  _498
REMARK  209  A    between atoms: _504  and  _506
REMARK  210  A    between atoms: _506  and  _507
REMARK  211  A    between atoms: _506  and  _509
REMARK  212  A    between atoms: _509  and  _510
REMARK  213  A    between atoms: _512  and  _514
REMARK  214  A    between atoms: _514  and  _515
REMARK  215  A    between atoms: _514  and  _517
REMARK  216  A    between atoms: _517  and  _518
REMARK  217  A    between atoms: _521  and  _523
REMARK  218  A    between atoms: _523  and  _524
REMARK  219  A    between atoms: _523  and  _526
REMARK  220  A    between atoms: _526  and  _527
REMARK  221  A    between atoms: _533  and  _535
REMARK  222  A    between atoms: _535  and  _536
REMARK  223  A    between atoms: _538  and  _540
REMARK  224  A    between atoms: _540  and  _541
REMARK  225  A    between atoms: _540  and  _543
REMARK  226  A    between atoms: _543  and  _544
REMARK  227  A    between atoms: _547  and  _549
REMARK  228  A    between atoms: _549  and  _550
REMARK  229  A    between atoms: _552  and  _554
REMARK  230  A    between atoms: _554  and  _555
REMARK  231  A    between atoms: _554  and  _557
REMARK  232  A    between atoms: _557  and  _558
REMARK  233  A    between atoms: _563  and  _564
REMARK  234  A    between atoms: _566  and  _568
REMARK  235  A    between atoms: _568  and  _569
REMARK  236  A    between atoms: _568  and  _571
REMARK  237  A    between atoms: _571  and  _572
REMARK  238  A    between atoms: _575  and  _577
REMARK  239  A    between atoms: _577  and  _578
REMARK  240  A    between atoms: _577  and  _580
REMARK  241  A    between atoms: _580  and  _581
REMARK  242  A    between atoms: _584  and  _586
REMARK  243  A    between atoms: _586  and  _587
REMARK  244  A    between atoms: _586  and  _589
REMARK  245  A    between atoms: _592  and  _594
REMARK  246  A    between atoms: _594  and  _595
REMARK  247  A    between atoms: _594  and  _597
REMARK  248  A    between atoms: _597  and  _598
REMARK  249  A    between atoms: _598  and  _599
REMARK  250  A    between atoms: _605  and  _606
REMARK  251  A    between atoms: _611  and  _613
REMARK  252  A    between atoms: _613  and  _614
REMARK  253  A    between atoms: _613  and  _616
REMARK  254  A    between atoms: _616  and  _617
REMARK  255  A    between atoms: _617  and  _618
REMARK                            x       y       z     vdW  Elec       q    Type
REMARK                         _______ _______ _______ _____ _____    ______ ____
ROOT
ATOM      1  CB  GLN A   1      25.376  21.601  29.643  0.00  0.00    +0.035 C 
ENDROOT
BRANCH   1   2
ATOM      2  CA  GLN A   1      26.637  22.291  29.133  0.00  0.00    +0.134 C 
BRANCH   2   3
ATOM      3  N   GLN A   1      26.442  23.732  28.960  0.00  0.00    -0.239 NA
ATOM      4  H   GLN A   1      25.607  24.072  28.442  0.00  0.00    +0.142 HD
ENDBRANCH   2   3
BRANCH   2   5
ATOM      5  C   GLN A   1      27.149  21.661  27.849  0.00  0.00    +0.224 C 
ATOM      6  O   GLN A   1      27.115  20.447  27.682  0.00  0.00    -0.287 OA
ENDBRANCH   2   5
ENDBRANCH   1   2
BRANCH   1   7
ATOM      7  CG  GLN A   1      25.182  21.843  31.147  0.00  0.00    +0.087 C 
BRANCH   7   8
ATOM      8  CD  GLN A   1      26.292  21.186  31.965  0.00  0.00    +0.219 C 
ATOM      9  NE2 GLN A   1      26.655  21.806  33.083  0.00  0.00    -0.329 N 
ATOM     10 HE21 GLN A   1      27.454  21.445  33.642  0.00  0.00    +0.145 HD
ATOM     11 HE22 GLN A   1      26.140  22.652  33.399  0.00  0.00    +0.145 HD
ATOM     12  OE1 GLN A   1      26.870  20.183  31.552  0.00  0.00    -0.275 OA
ENDBRANCH   7   8
ENDBRANCH   1   7
TORSDOF 5
REMARK  Name = ../refined-set-2016/2web/2web_pocket.pdb
REMARK  255 active torsions:
REMARK  status: ('A' for Active; 'I' for Inactive)
REMARK    1  A    between atoms: _1  and  _3
REMARK    2  A    between atoms: _3  and  _4
REMARK    3  A    between atoms: _3  and  _6
REMARK    4  A    between atoms: _6  and  _7
REMARK    5  A    between atoms: _10  and  _12
REMARK    6  A    between atoms: _12  and  _13
REMARK    7  A    between atoms: _12  and  _15
REMARK    8  A    between atoms: _15  and  _16
REMARK    9  A    between atoms: _16  and  _17
REMARK   10  A    between atoms: _20  and  _22
REMARK   11  A    between atoms: _22  and  _23
REMARK   12  A    between atoms: _22  and  _25
REMARK   13  A    between atoms: _25  and  _26
REMARK   14  A    between atoms: _26  and  _27
REMARK   15  A    between atoms: _30  and  _32
REMARK   16  A    between atoms: _32  and  _33
REMARK   17  A    between atoms: _32  and  _35
REMARK   18  A    between atoms: _35  and  _36
REMARK   19  A    between atoms: _41  and  _42
REMARK   20  A    between atoms: _44  and  _46
REMARK   21  A    between atoms: _46  and  _47
REMARK   22  A    between atoms: _46  and  _49
REMARK   23  A    between atoms: _49  and  _50
REMARK   24  A    between atoms: _55  and  _57
REMARK   25  A    between atoms: _57  and  _58
REMARK   26  A    between atoms: _57  and  _60
REMARK   27  A    between atoms: _60  and  _61
REMARK   28  A    between atoms: _67  and  _69
REMARK   29  A    between atoms: _69  and  _70
REMARK   30  A    between atoms: _69  and  _72
REMARK   31  A    between atoms: _72  and  _73
REMARK   32  A    between atoms: _76  and  _78
REMARK   33  A    between atoms: _78  and  _79
REMARK   34  A    between atoms: _78  and  _81
REMARK   35  A    between atoms: _81  and  _82
REMARK   36  A    between atoms: _85  and  _87
REMARK   37  A    between atoms: _87  and  _88
REMARK   38  A    between atoms: _90  and  _92
REMARK   39  A    between atoms: _92  and  _93
REMARK   40  A    between atoms: _92  and  _95
REMARK   41  A    between atoms: _95  and  _96
REMARK   42  A    between atoms: _98  and  _100
REMARK   43  A    between atoms: _100  and  _101
REMARK   44  A    between atoms: _104  and  _106
REMARK   45  A    between atoms: _106  and  _107
REMARK   46  A    between atoms: _106  and  _109
REMARK   47  A    between atoms: _109  and  _110
REMARK   48  A    between atoms: _113  and  _115
REMARK   49  A    between atoms: _115  and  _116
REMARK   50  A    between atoms: _115  and  _118
REMARK   51  A    between atoms: _118  and  _119
REMARK   52  A    between atoms: _129  and  _131
REMARK   53  A    between atoms: _131  and  _132
REMARK   54  A    between atoms: _131  and  _134
REMARK   55  A    between atoms: _134  and  _135
REMARK   56  A    between atoms: _138  and  _140
REMARK   57  A    between atoms: _140  and  _141
REMARK   58  A    between atoms: _140  and  _143
REMARK   59  A    between atoms: _143  and  _144
REMARK   60  A    between atoms: _146  and  _148
REMARK   61  A    between atoms: _148  and  _149
REMARK   62  A    between atoms: _148  and  _151
REMARK   63  A    between atoms: _151  and  _152
REMARK   64  A    between atoms: _157  and  _158
REMARK   65  A    between atoms: _160  and  _162
REMARK   66  A    between atoms: _162  and  _163
REMARK   67  A    between atoms: _165  and  _167
REMARK   68  A    between atoms: _167  and  _168
REMARK   69  A    between atoms: _167  and  _170
REMARK   70  A    between atoms: _170  and  _171
REMARK   71  A    between atoms: _174  and  _176
REMARK   72  A    between atoms: _176  and  _177
REMARK   73  A    between atoms: _179  and  _181
REMARK   74  A    between atoms: _181  and  _182
REMARK   75  A    between atoms: _181  and  _184
REMARK   76  A    between atoms: _184  and  _185
REMARK   77  A    between atoms: _187  and  _189
REMARK   78  A    between atoms: _189  and  _190
REMARK   79  A    between atoms: _189  and  _192
REMARK   80  A    between atoms: _192  and  _193
REMARK   81  A    between atoms: _195  and  _197
REMARK   82  A    between atoms: _197  and  _198
REMARK   83  A    between atoms: _197  and  _200
REMARK   84  A    between atoms: _200  and  _201
REMARK   85  A    between atoms: _203  and  _205
REMARK   86  A    between atoms: _205  and  _206
REMARK   87  A    between atoms: _209  and  _211
REMARK   88  A    between atoms: _211  and  _212
REMARK   89  A    between atoms: _211  and  _214
REMARK   90  A    between atoms: _214  and  _215
REMARK   91  A    between atoms: _215  and  _216
REMARK   92  A    between atoms: _221  and  _223
REMARK   93  A    between atoms: _223  and  _224
REMARK   94  A    between atoms: _223  and  _226
REMARK   95  A    between atoms: _226  and  _227
REMARK   96  A    between atoms: _233  and  _235
REMARK   97  A    between atoms: _235  and  _236
REMARK   98  A    between atoms: _235  and  _238
REMARK   99  A    between atoms: _238  and  _239
REMARK  100  A    between atoms: _239  and  _240
REMARK  101  A    between atoms: _245  and  _247
REMARK  102  A    between atoms: _247  and  _248
REMARK  103  A    between atoms: _247  and  _250
REMARK  104  A    between atoms: _250  and  _251
REMARK  105  A    between atoms: _251  and  _252
REMARK  106  A    between atoms: _257  and  _259
REMARK  107  A    between atoms: _259  and  _260
REMARK  108  A    between atoms: _259  and  _262
REMARK  109  A    between atoms: _262  and  _263
REMARK  110  A    between atoms: _266  and  _268
REMARK  111  A    between atoms: _268  and  _269
REMARK  112  A    between atoms: _268  and  _271
REMARK  113  A    between atoms: _271  and  _272
REMARK  114  A    between atoms: _275  and  _277
REMARK  115  A    between atoms: _277  and  _278
REMARK  116  A    between atoms: _277  and  _280
REMARK  117  A    between atoms: _280  and  _281
REMARK  118  A    between atoms: _286  and  _288
REMARK  119  A    between atoms: _288  and  _289
REMARK  120  A    between atoms: _288  and  _291
REMARK  121  A    between atoms: _291  and  _292
REMARK  122  A    between atoms: _297  and  _299
REMARK  123  A    between atoms: _299  and  _300
REMARK  124  A    between atoms: _302  and  _304
REMARK  125  A    between atoms: _304  and  _305
REMARK  126  A    between atoms: _304  and  _307
REMARK  127  A    between atoms: _307  and  _308
REMARK  128  A    between atoms: _311  and  _313
REMARK  129  A    between atoms: _313  and  _314
REMARK  130  A    between atoms: _316  and  _318
REMARK  131  A    between atoms: _318  and  _319
REMARK  132  A    between atoms: _318  and  _321
REMARK  133  A    between atoms: _321  and  _322
REMARK  134  A    between atoms: _325  and  _327
REMARK  135  A    between atoms: _327  and  _328
REMARK  136  A    between atoms: _331  and  _333
REMARK  137  A    between atoms: _333  and  _334
REMARK  138  A    between atoms: _333  and  _336
REMARK  139  A    between atoms: _336  and  _337
REMARK  140  A    between atoms: _340  and  _342
REMARK  141  A    between atoms: _342  and  _343
REMARK  142  A    between atoms: _342  and  _345
REMARK  143  A    between atoms: _345  and  _346
REMARK  144  A    between atoms: _349  and  _351
REMARK  145  A    between atoms: _351  and  _352
REMARK  146  A    between atoms: _351  and  _354
REMARK  147  A    between atoms: _354  and  _355
REMARK  148  A    between atoms: _355  and  _356
REMARK  149  A    between atoms: _361  and  _363
REMARK  150  A    between atoms: _363  and  _364
REMARK  151  A    between atoms: _363  and  _366
REMARK  152  A    between atoms: _366  and  _367
REMARK  153  A    between atoms: _373  and  _375
REMARK  154  A    between atoms: _375  and  _376
REMARK  155  A    between atoms: _375  and  _378
REMARK  156  A    between atoms: _378  and  _379
REMARK  157  A    between atoms: _382  and  _384
REMARK  158  A    between atoms: _384  and  _385
REMARK  159  A    between atoms: _388  and  _390
REMARK  160  A    between atoms: _390  and  _391
REMARK  161  A    between atoms: _390  and  _393
REMARK  162  A    between atoms: _393  and  _394
REMARK  163  A    between atoms: _397  and  _399
REMARK  164  A    between atoms: _399  and  _400
REMARK  165  A    between atoms: _399  and  _402
REMARK  166  A    between atoms: _402  and  _403
REMARK  167  A    between atoms: _406  and  _408
REMARK  168  A    between atoms: _408  and  _409
REMARK  169  A    between atoms: _411  and  _413
REMARK  170  A    between atoms: _413  and  _414
REMARK  171  A    between atoms: _413  and  _416
REMARK  172  A    between atoms: _416  and  _417
REMARK  173  A    between atoms: _420  and  _422
REMARK  174  A    between atoms: _422  and  _423
REMARK  175  A    between atoms: _422  and  _425
REMARK  176  A    between atoms: _425  and  _426
REMARK  177  A    between atoms: _429  and  _431
REMARK  178  A    between atoms: _431  and  _432
REMARK  179  A    between atoms: _431  and  _434
REMARK  180  A    between atoms: _434  and  _435
REMARK  181  A    between atoms: _438  and  _440
REMARK  182  A    between atoms: _440  and  _441
REMARK  183  A    between atoms: _440  and  _443
REMARK  184  A    between atoms: _443  and  _444
REMARK  185  A    between atoms: _447  and  _449
REMARK  186  A    between atoms: _449  and  _450
REMARK  187  A    between atoms: _449  and  _452
REMARK  188  A    between atoms: _452  and  _453
REMARK  189  A    between atoms: _456  and  _458
REMARK  190  A    between atoms: _458  and  _459
REMARK  191  A    between atoms: _458  and  _461
REMARK  192  A    between atoms: _461  and  _462
REMARK  193  A    between atoms: _464  and  _466
REMARK  194  A    between atoms: _466  and  _467
REMARK  195  A    between atoms: _466  and  _469
REMARK  196  A    between atoms: _469  and  _470
REMARK  197  A    between atoms: _475  and  _477
REMARK  198  A    between atoms: _477  and  _478
REMARK  199  A    between atoms: _477  and  _480
REMARK  200  A    between atoms: _480  and  _481
REMARK  201  A    between atoms: _483  and  _485
REMARK  202  A    between atoms: _485  and  _486
REMARK  203  A    between atoms: _485  and  _488
REMARK  204  A    between atoms: _488  and  _489
REMARK  205  A    between atoms: _492  and  _494
REMARK  206  A    between atoms: _494  and  _495
REMARK  207  A    between atoms: _494  and  _497
REMARK  208  A    between atoms: _497  and  _498
REMARK  209  A    between atoms: _504  and  _506
REMARK  210  A    between atoms: _506  and  _507
REMARK  211  A    between atoms: _506  and  _509
REMARK  212  A    between atoms: _509  and  _510
REMARK  213  A    between atoms: _512  and  _514
REMARK  214  A    between atoms: _514  and  _515
REMARK  215  A    between atoms: _514  and  _517
REMARK  216  A    between atoms: _517  and  _518
REMARK  217  A    between atoms: _521  and  _523
REMARK  218  A    between atoms: _523  and  _524
REMARK  219  A    between atoms: _523  and  _526
REMARK  220  A    between atoms: _526  and  _527
REMARK  221  A    between atoms: _533  and  _535
REMARK  222  A    between atoms: _535  and  _536
REMARK  223  A    between atoms: _538  and  _540
REMARK  224  A    between atoms: _540  and  _541
REMARK  225  A    between atoms: _540  and  _543
REMARK  226  A    between atoms: _543  and  _544
REMARK  227  A    between atoms: _547  and  _549
REMARK  228  A    between atoms: _549  and  _550
REMARK  229  A    between atoms: _552  and  _554
REMARK  230  A    between atoms: _554  and  _555
REMARK  231  A    between atoms: _554  and  _557
REMARK  232  A    between atoms: _557  and  _558
REMARK  233  A    between atoms: _563  and  _564
REMARK  234  A    between atoms: _566  and  _568
REMARK  235  A    between atoms: _568  and  _569
REMARK  236  A    between atoms: _568  and  _571
REMARK  237  A    between atoms: _571  and  _572
REMARK  238  A    between atoms: _575  and  _577
REMARK  239  A    between atoms: _577  and  _578
REMARK  240  A    between atoms: _577  and  _580
REMARK  241  A    between atoms: _580  and  _581
REMARK  242  A    between atoms: _584  and  _586
REMARK  243  A    between atoms: _586  and  _587
REMARK  244  A    between atoms: _586  and  _589
REMARK  245  A    between atoms: _592  and  _594
REMARK  246  A    between atoms: _594  and  _595
REMARK  247  A    between atoms: _594  and  _597
REMARK  248  A    between atoms: _597  and  _598
REMARK  249  A    between atoms: _598  and  _599
REMARK  250  A    between atoms: _605  and  _606
REMARK  251  A    between atoms: _611  and  _613
REMARK  252  A    between atoms: _613  and  _614
REMARK  253  A    between atoms: _613  and  _616
REMARK  254  A    between atoms: _616  and  _617
REMARK  255  A    between atoms: _617  and  _618
REMARK                            x       y       z     vdW  Elec       q    Type
REMARK                         _______ _______ _______ _____ _____    ______ ____
ROOT
ATOM      1  CB  PHE A   1      23.642  20.824  24.439  0.00  0.00    +0.051 C 
ENDROOT
BRANCH   1   2
ATOM      2  CG  PHE A   1      23.997  19.550  25.163  0.00  0.00    -0.020 A 
ATOM      3  CD2 PHE A   1      23.764  19.426  26.522  0.00  0.00    -0.004 A 
ATOM      4  CE2 PHE A   1      24.051  18.229  27.189  0.00  0.00    -0.000 A 
ATOM      5  CZ  PHE A   1      24.564  17.150  26.489  0.00  0.00    -0.000 A 
ATOM      6  CE1 PHE A   1      24.825  17.268  25.145  0.00  0.00    -0.000 A 
ATOM      7  CD1 PHE A   1      24.514  18.457  24.477  0.00  0.00    -0.004 A 
ENDBRANCH   1   2
BRANCH   1   8
ATOM      8  CA  PHE A   1      24.837  21.554  23.820  0.00  0.00    +0.137 C 
BRANCH   8   9
ATOM      9  N   PHE A   1      25.849  21.906  24.830  0.00  0.00    -0.239 NA
ATOM     10  H   PHE A   1      25.557  22.282  25.755  0.00  0.00    +0.142 HD
ENDBRANCH   8   9
BRANCH   8  11
ATOM     11  C   PHE A   1      24.301  22.775  23.083  0.00  0.00    +0.224 C 
ATOM     12  O   PHE A   1      24.468  23.899  23.543  0.00  0.00    -0.287 OA
ENDBRANCH   8  11
ENDBRANCH   1   8
TORSDOF 4
REMARK  Name = ../refined-set-2016/2web/2web_pocket.pdb
REMARK  255 active torsions:
REMARK  status: ('A' for Active; 'I' for Inactive)
REMARK    1  A    between atoms: _1  and  _3
REMARK    2  A    between atoms: _3  and  _4
REMARK    3  A    between atoms: _3  and  _6
REMARK    4  A    between atoms: _6  and  _7
REMARK    5  A    between atoms: _10  and  _12
REMARK    6  A    between atoms: _12  and  _13
REMARK    7  A    between atoms: _12  and  _15
REMARK    8  A    between atoms: _15  and  _16
REMARK    9  A    between atoms: _16  and  _17
REMARK   10  A    between atoms: _20  and  _22
REMARK   11  A    between atoms: _22  and  _23
REMARK   12  A    between atoms: _22  and  _25
REMARK   13  A    between atoms: _25  and  _26
REMARK   14  A    between atoms: _26  and  _27
REMARK   15  A    between atoms: _30  and  _32
REMARK   16  A    between atoms: _32  and  _33
REMARK   17  A    between atoms: _32  and  _35
REMARK   18  A    between atoms: _35  and  _36
REMARK   19  A    between atoms: _41  and  _42
REMARK   20  A    between atoms: _44  and  _46
REMARK   21  A    between atoms: _46  and  _47
REMARK   22  A    between atoms: _46  and  _49
REMARK   23  A    between atoms: _49  and  _50
REMARK   24  A    between atoms: _55  and  _57
REMARK   25  A    between atoms: _57  and  _58
REMARK   26  A    between atoms: _57  and  _60
REMARK   27  A    between atoms: _60  and  _61
REMARK   28  A    between atoms: _67  and  _69
REMARK   29  A    between atoms: _69  and  _70
REMARK   30  A    between atoms: _69  and  _72
REMARK   31  A    between atoms: _72  and  _73
REMARK   32  A    between atoms: _76  and  _78
REMARK   33  A    between atoms: _78  and  _79
REMARK   34  A    between atoms: _78  and  _81
REMARK   35  A    between atoms: _81  and  _82
REMARK   36  A    between atoms: _85  and  _87
REMARK   37  A    between atoms: _87  and  _88
REMARK   38  A    between atoms: _90  and  _92
REMARK   39  A    between atoms: _92  and  _93
REMARK   40  A    between atoms: _92  and  _95
REMARK   41  A    between atoms: _95  and  _96
REMARK   42  A    between atoms: _98  and  _100
REMARK   43  A    between atoms: _100  and  _101
REMARK   44  A    between atoms: _104  and  _106
REMARK   45  A    between atoms: _106  and  _107
REMARK   46  A    between atoms: _106  and  _109
REMARK   47  A    between atoms: _109  and  _110
REMARK   48  A    between atoms: _113  and  _115
REMARK   49  A    between atoms: _115  and  _116
REMARK   50  A    between atoms: _115  and  _118
REMARK   51  A    between atoms: _118  and  _119
REMARK   52  A    between atoms: _129  and  _131
REMARK   53  A    between atoms: _131  and  _132
REMARK   54  A    between atoms: _131  and  _134
REMARK   55  A    between atoms: _134  and  _135
REMARK   56  A    between atoms: _138  and  _140
REMARK   57  A    between atoms: _140  and  _141
REMARK   58  A    between atoms: _140  and  _143
REMARK   59  A    between atoms: _143  and  _144
REMARK   60  A    between atoms: _146  and  _148
REMARK   61  A    between atoms: _148  and  _149
REMARK   62  A    between atoms: _148  and  _151
REMARK   63  A    between atoms: _151  and  _152
REMARK   64  A    between atoms: _157  and  _158
REMARK   65  A    between atoms: _160  and  _162
REMARK   66  A    between atoms: _162  and  _163
REMARK   67  A    between atoms: _165  and  _167
REMARK   68  A    between atoms: _167  and  _168
REMARK   69  A    between atoms: _167  and  _170
REMARK   70  A    between atoms: _170  and  _171
REMARK   71  A    between atoms: _174  and  _176
REMARK   72  A    between atoms: _176  and  _177
REMARK   73  A    between atoms: _179  and  _181
REMARK   74  A    between atoms: _181  and  _182
REMARK   75  A    between atoms: _181  and  _184
REMARK   76  A    between atoms: _184  and  _185
REMARK   77  A    between atoms: _187  and  _189
REMARK   78  A    between atoms: _189  and  _190
REMARK   79  A    between atoms: _189  and  _192
REMARK   80  A    between atoms: _192  and  _193
REMARK   81  A    between atoms: _195  and  _197
REMARK   82  A    between atoms: _197  and  _198
REMARK   83  A    between atoms: _197  and  _200
REMARK   84  A    between atoms: _200  and  _201
REMARK   85  A    between atoms: _203  and  _205
REMARK   86  A    between atoms: _205  and  _206
REMARK   87  A    between atoms: _209  and  _211
REMARK   88  A    between atoms: _211  and  _212
REMARK   89  A    between atoms: _211  and  _214
REMARK   90  A    between atoms: _214  and  _215
REMARK   91  A    between atoms: _215  and  _216
REMARK   92  A    between atoms: _221  and  _223
REMARK   93  A    between atoms: _223  and  _224
REMARK   94  A    between atoms: _223  and  _226
REMARK   95  A    between atoms: _226  and  _227
REMARK   96  A    between atoms: _233  and  _235
REMARK   97  A    between atoms: _235  and  _236
REMARK   98  A    between atoms: _235  and  _238
REMARK   99  A    between atoms: _238  and  _239
REMARK  100  A    between atoms: _239  and  _240
REMARK  101  A    between atoms: _245  and  _247
REMARK  102  A    between atoms: _247  and  _248
REMARK  103  A    between atoms: _247  and  _250
REMARK  104  A    between atoms: _250  and  _251
REMARK  105  A    between atoms: _251  and  _252
REMARK  106  A    between atoms: _257  and  _259
REMARK  107  A    between atoms: _259  and  _260
REMARK  108  A    between atoms: _259  and  _262
REMARK  109  A    between atoms: _262  and  _263
REMARK  110  A    between atoms: _266  and  _268
REMARK  111  A    between atoms: _268  and  _269
REMARK  112  A    between atoms: _268  and  _271
REMARK  113  A    between atoms: _271  and  _272
REMARK  114  A    between atoms: _275  and  _277
REMARK  115  A    between atoms: _277  and  _278
REMARK  116  A    between atoms: _277  and  _280
REMARK  117  A    between atoms: _280  and  _281
REMARK  118  A    between atoms: _286  and  _288
REMARK  119  A    between atoms: _288  and  _289
REMARK  120  A    between atoms: _288  and  _291
REMARK  121  A    between atoms: _291  and  _292
REMARK  122  A    between atoms: _297  and  _299
REMARK  123  A    between atoms: _299  and  _300
REMARK  124  A    between atoms: _302  and  _304
REMARK  125  A    between atoms: _304  and  _305
REMARK  126  A    between atoms: _304  and  _307
REMARK  127  A    between atoms: _307  and  _308
REMARK  128  A    between atoms: _311  and  _313
REMARK  129  A    between atoms: _313  and  _314
REMARK  130  A    between atoms: _316  and  _318
REMARK  131  A    between atoms: _318  and  _319
REMARK  132  A    between atoms: _318  and  _321
REMARK  133  A    between atoms: _321  and  _322
REMARK  134  A    between atoms: _325  and  _327
REMARK  135  A    between atoms: _327  and  _328
REMARK  136  A    between atoms: _331  and  _333
REMARK  137  A    between atoms: _333  and  _334
REMARK  138  A    between atoms: _333  and  _336
REMARK  139  A    between atoms: _336  and  _337
REMARK  140  A    between atoms: _340  and  _342
REMARK  141  A    between atoms: _342  and  _343
REMARK  142  A    between atoms: _342  and  _345
REMARK  143  A    between atoms: _345  and  _346
REMARK  144  A    between atoms: _349  and  _351
REMARK  145  A    between atoms: _351  and  _352
REMARK  146  A    between atoms: _351  and  _354
REMARK  147  A    between atoms: _354  and  _355
REMARK  148  A    between atoms: _355  and  _356
REMARK  149  A    between atoms: _361  and  _363
REMARK  150  A    between atoms: _363  and  _364
REMARK  151  A    between atoms: _363  and  _366
REMARK  152  A    between atoms: _366  and  _367
REMARK  153  A    between atoms: _373  and  _375
REMARK  154  A    between atoms: _375  and  _376
REMARK  155  A    between atoms: _375  and  _378
REMARK  156  A    between atoms: _378  and  _379
REMARK  157  A    between atoms: _382  and  _384
REMARK  158  A    between atoms: _384  and  _385
REMARK  159  A    between atoms: _388  and  _390
REMARK  160  A    between atoms: _390  and  _391
REMARK  161  A    between atoms: _390  and  _393
REMARK  162  A    between atoms: _393  and  _394
REMARK  163  A    between atoms: _397  and  _399
REMARK  164  A    between atoms: _399  and  _400
REMARK  165  A    between atoms: _399  and  _402
REMARK  166  A    between atoms: _402  and  _403
REMARK  167  A    between atoms: _406  and  _408
REMARK  168  A    between atoms: _408  and  _409
REMARK  169  A    between atoms: _411  and  _413
REMARK  170  A    between atoms: _413  and  _414
REMARK  171  A    between atoms: _413  and  _416
REMARK  172  A    between atoms: _416  and  _417
REMARK  173  A    between atoms: _420  and  _422
REMARK  174  A    between atoms: _422  and  _423
REMARK  175  A    between atoms: _422  and  _425
REMARK  176  A    between atoms: _425  and  _426
REMARK  177  A    between atoms: _429  and  _431
REMARK  178  A    between atoms: _431  and  _432
REMARK  179  A    between atoms: _431  and  _434
REMARK  180  A    between atoms: _434  and  _435
REMARK  181  A    between atoms: _438  and  _440
REMARK  182  A    between atoms: _440  and  _441
REMARK  183  A    between atoms: _440  and  _443
REMARK  184  A    between atoms: _443  and  _444
REMARK  185  A    between atoms: _447  and  _449
REMARK  186  A    between atoms: _449  and  _450
REMARK  187  A    between atoms: _449  and  _452
REMARK  188  A    between atoms: _452  and  _453
REMARK  189  A    between atoms: _456  and  _458
REMARK  190  A    between atoms: _458  and  _459
REMARK  191  A    between atoms: _458  and  _461
REMARK  192  A    between atoms: _461  and  _462
REMARK  193  A    between atoms: _464  and  _466
REMARK  194  A    between atoms: _466  and  _467
REMARK  195  A    between atoms: _466  and  _469
REMARK  196  A    between atoms: _469  and  _470
REMARK  197  A    between atoms: _475  and  _477
REMARK  198  A    between atoms: _477  and  _478
REMARK  199  A    between atoms: _477  and  _480
REMARK  200  A    between atoms: _480  and  _481
REMARK  201  A    between atoms: _483  and  _485
REMARK  202  A    between atoms: _485  and  _486
REMARK  203  A    between atoms: _485  and  _488
REMARK  204  A    between atoms: _488  and  _489
REMARK  205  A    between atoms: _492  and  _494
REMARK  206  A    between atoms: _494  and  _495
REMARK  207  A    between atoms: _494  and  _497
REMARK  208  A    between atoms: _497  and  _498
REMARK  209  A    between atoms: _504  and  _506
REMARK  210  A    between atoms: _506  and  _507
REMARK  211  A    between atoms: _506  and  _509
REMARK  212  A    between atoms: _509  and  _510
REMARK  213  A    between atoms: _512  and  _514
REMARK  214  A    between atoms: _514  and  _515
REMARK  215  A    between atoms: _514  and  _517
REMARK  216  A    between atoms: _517  and  _518
REMARK  217  A    between atoms: _521  and  _523
REMARK  218  A    between atoms: _523  and  _524
REMARK  219  A    between atoms: _523  and  _526
REMARK  220  A    between atoms: _526  and  _527
REMARK  221  A    between atoms: _533  and  _535
REMARK  222  A    between atoms: _535  and  _536
REMARK  223  A    between atoms: _538  and  _540
REMARK  224  A    between atoms: _540  and  _541
REMARK  225  A    between atoms: _540  and  _543
REMARK  226  A    between atoms: _543  and  _544
REMARK  227  A    between atoms: _547  and  _549
REMARK  228  A    between atoms: _549  and  _550
REMARK  229  A    between atoms: _552  and  _554
REMARK  230  A    between atoms: _554  and  _555
REMARK  231  A    between atoms: _554  and  _557
REMARK  232  A    between atoms: _557  and  _558
REMARK  233  A    between atoms: _563  and  _564
REMARK  234  A    between atoms: _566  and  _568
REMARK  235  A    between atoms: _568  and  _569
REMARK  236  A    between atoms: _568  and  _571
REMARK  237  A    between atoms: _571  and  _572
REMARK  238  A    between atoms: _575  and  _577
REMARK  239  A    between atoms: _577  and  _578
REMARK  240  A    between atoms: _577  and  _580
REMARK  241  A    between atoms: _580  and  _581
REMARK  242  A    between atoms: _584  and  _586
REMARK  243  A    between atoms: _586  and  _587
REMARK  244  A    between atoms: _586  and  _589
REMARK  245  A    between atoms: _592  and  _594
REMARK  246  A    between atoms: _594  and  _595
REMARK  247  A    between atoms: _594  and  _597
REMARK  248  A    between atoms: _597  and  _598
REMARK  249  A    between atoms: _598  and  _599
REMARK  250  A    between atoms: _605  and  _606
REMARK  251  A    between atoms: _611  and  _613
REMARK  252  A    between atoms: _613  and  _614
REMARK  253  A    between atoms: _613  and  _616
REMARK  254  A    between atoms: _616  and  _617
REMARK  255  A    between atoms: _617  and  _618
REMARK                            x       y       z     vdW  Elec       q    Type
REMARK                         _______ _______ _______ _____ _____    ______ ____
ROOT
ATOM      1  CA  THR A   6      18.730  11.121  18.560  0.00  0.00    +0.176 C 
ENDROOT
BRANCH   1   2
ATOM      2  C   THR A   6      17.589  11.020  17.556  0.00  0.00    +0.243 C 
ATOM      3  N   THR A   7      17.078   9.816  17.368  0.00  0.00    -0.295 N 
ATOM      4  H   THR A   7      17.430   9.028  17.948  0.00  0.00    +0.150 HD
ATOM      5  O   THR A   6      17.214  12.004  16.935  0.00  0.00    -0.273 OA
BRANCH   3   6
ATOM      6  CA  THR A   7      16.036   9.549  16.375  0.00  0.00    +0.176 C 
BRANCH   6   7
ATOM      7  C   THR A   7      14.707  10.230  16.690  0.00  0.00    +0.243 C 
ATOM      8  N   LEU A   8      14.327  10.209  17.960  0.00  0.00    -0.297 N 
ATOM      9  H   LEU A   8      14.989   9.853  18.679  0.00  0.00    +0.150 HD
ATOM     10  O   THR A   7      14.029  10.720  15.803  0.00  0.00    -0.273 OA
BRANCH   8  11
ATOM     11  CA  LEU A   8      13.008  10.670  18.379  0.00  0.00    +0.149 C 
BRANCH  11  12
ATOM     12  C   LEU A   8      12.959  12.048  19.024  0.00  0.00    +0.241 C 
ATOM     13  N   LEU A   9      11.748  12.496  19.305  0.00  0.00    -0.297 N 
ATOM     14  H   LEU A   9      10.932  11.919  19.017  0.00  0.00    +0.150 HD
ATOM     15  O   LEU A   8      13.975  12.687  19.210  0.00  0.00    -0.273 OA
BRANCH  13  16
ATOM     16  CA  LEU A   9      11.492  13.750  19.994  0.00  0.00    +0.149 C 
BRANCH  16  17
ATOM     17  C   LEU A   9      11.188  13.302  21.424  0.00  0.00    +0.241 C 
ATOM     18  N   LEU A  10      12.118  13.554  22.353  0.00  0.00    -0.298 N 
ATOM     19  H   LEU A  10      12.974  14.077  22.081  0.00  0.00    +0.150 HD
ATOM     20  O   LEU A   9      10.150  12.670  21.667  0.00  0.00    -0.273 OA
BRANCH  18  21
ATOM     21  CA  LEU A  10      11.965  13.113  23.747  0.00  0.00    +0.137 C 
BRANCH  21  22
ATOM     22  C   LEU A  10      11.520  14.272  24.615  0.00  0.00    +0.227 C 
ATOM     23  O   LEU A  10      12.263  15.237  24.776  0.00  0.00    -0.286 OA
ENDBRANCH  21  22
BRANCH  21  24
ATOM     24  CB  LEU A  10      13.280  12.519  24.273  0.00  0.00    +0.028 C 
BRANCH  24  25
ATOM     25  CG  LEU A  10      13.841  11.379  23.399  0.00  0.00    +0.002 C 
ATOM     26  CD2 LEU A  10      15.160  10.779  23.943  0.00  0.00    +0.000 C 
ATOM     27  CD1 LEU A  10      12.752  10.313  23.160  0.00  0.00    +0.000 C 
ENDBRANCH  24  25
ENDBRANCH  21  24
ENDBRANCH  18  21
ENDBRANCH  16  17
BRANCH  16  28
ATOM     28  CB  LEU A   9      10.290  14.441  19.323  0.00  0.00    +0.029 C 
BRANCH  28  29
ATOM     29  CG  LEU A   9       9.773  15.729  19.980  0.00  0.00    +0.002 C 
ATOM     30  CD2 LEU A   9      10.931  16.710  20.281  0.00  0.00    +0.000 C 
ATOM     31  CD1 LEU A   9       8.672  16.381  19.112  0.00  0.00    +0.000 C 
ENDBRANCH  28  29
ENDBRANCH  16  28
ENDBRANCH  13  16
ENDBRANCH  11  12
BRANCH  11  32
ATOM     32  CB  LEU A   8      12.401   9.645  19.336  0.00  0.00    +0.029 C 
BRANCH  32  33
ATOM     33  CG  LEU A   8      12.424   8.213  18.796  0.00  0.00    +0.002 C 
ATOM     34  CD2 LEU A   8      11.999   7.255  19.913  0.00  0.00    +0.000 C 
ATOM     35  CD1 LEU A   8      11.511   8.080  17.575  0.00  0.00    +0.000 C 
ENDBRANCH  32  33
ENDBRANCH  11  32
ENDBRANCH   8  11
ENDBRANCH   6   7
BRANCH   6  36
ATOM     36  CB  THR A   7      15.752   8.007  16.378  0.00  0.00    +0.137 C 
ATOM     37  CG2 THR A   7      14.768   7.635  15.283  0.00  0.00    +0.034 C 
BRANCH  36  38
ATOM     38  OG1 THR A   7      16.991   7.296  16.215  0.00  0.00    -0.382 OA
ATOM     39  HG1 THR A   7      17.408   7.555  15.356  0.00  0.00    +0.210 HD
ENDBRANCH  36  38
ENDBRANCH   6  36
ENDBRANCH   3   6
ENDBRANCH   1   2
BRANCH   1  41
ATOM     40  C   GLY A   5      20.974  11.243  17.607  0.00  0.00    +0.243 C 
ATOM     41  N   THR A   6      19.833  11.843  17.939  0.00  0.00    -0.295 N 
ATOM     42  H   THR A   6      19.725  12.860  17.749  0.00  0.00    +0.150 HD
ATOM     43  O   GLY A   5      21.235  10.061  17.890  0.00  0.00    -0.273 OA
BRANCH  40  44
ATOM     44  CA  GLY A   5      22.050  12.112  16.968  0.00  0.00    +0.176 C 
BRANCH  44  46
ATOM     45  C   THR A   4      20.936  13.716  15.473  0.00  0.00    +0.243 C 
ATOM     46  N   GLY A   5      21.631  13.460  16.576  0.00  0.00    -0.295 N 
ATOM     47  H   GLY A   5      21.891  14.257  17.192  0.00  0.00    +0.150 HD
ATOM     48  O   THR A   4      20.558  12.847  14.679  0.00  0.00    -0.273 OA
BRANCH  45  49
ATOM     49  CA  THR A   4      20.665  15.181  15.177  0.00  0.00    +0.176 C 
BRANCH  49  52
ATOM     50  C   ASP A   3      19.983  15.907  17.383  0.00  0.00    +0.241 C 
ATOM     51  O   ASP A   3      19.098  15.055  17.453  0.00  0.00    -0.273 OA
ATOM     52  N   THR A   4      20.813  16.014  16.360  0.00  0.00    -0.295 N 
ATOM     53  H   THR A   4      21.587  16.707  16.402  0.00  0.00    +0.150 HD
BRANCH  50  54
ATOM     54  CA  ASP A   3      20.255  16.866  18.540  0.00  0.00    +0.160 C 
BRANCH  54  57
ATOM     55  C   ALA A   2      19.868  19.248  18.797  0.00  0.00    +0.241 C 
ATOM     56  O   ALA A   2      21.078  19.485  18.808  0.00  0.00    -0.273 OA
ATOM     57  N   ASP A   3      19.375  18.036  18.538  0.00  0.00    -0.297 N 
ATOM     58  H   ASP A   3      18.362  17.922  18.334  0.00  0.00    +0.150 HD
BRANCH  55  59
ATOM     59  CA  ALA A   2      18.852  20.379  18.969  0.00  0.00    +0.149 C 
ATOM     60  CB  ALA A   2      19.177  21.571  18.047  0.00  0.00    +0.031 C 
BRANCH  59  63
ATOM     61  C   ILE A   1      18.375  20.110  21.349  0.00  0.00    +0.238 C 
ATOM     62  O   ILE A   1      17.613  19.154  21.156  0.00  0.00    -0.274 OA
ATOM     63  N   ALA A   2      18.992  20.767  20.366  0.00  0.00    -0.297 N 
ATOM     64  H   ALA A   2      19.592  21.582  20.604  0.00  0.00    +0.150 HD
BRANCH  61  65
ATOM     65  CA  ILE A   1      18.661  20.582  22.786  0.00  0.00    +0.145 C 
BRANCH  65  66
ATOM     66  N   ILE A   1      17.498  20.547  23.647  0.00  0.00    -0.238 NA
ATOM     67  H   ILE A   1      17.069  19.632  23.894  0.00  0.00    +0.142 HD
ENDBRANCH  65  66
BRANCH  65  68
ATOM     68  CB  ILE A   1      19.846  19.806  23.386  0.00  0.00    +0.025 C 
ATOM     69  CG2 ILE A   1      20.150  20.299  24.796  0.00  0.00    +0.002 C 
BRANCH  68  70
ATOM     70  CG1 ILE A   1      19.544  18.305  23.464  0.00  0.00    +0.002 C 
ATOM     71  CD1 ILE A   1      20.808  17.482  23.745  0.00  0.00    +0.000 C 
ENDBRANCH  68  70
ENDBRANCH  65  68
ENDBRANCH  61  65
ENDBRANCH  59  63
ENDBRANCH  55  59
ENDBRANCH  54  57
BRANCH  54  72
ATOM     72  CB  ASP A   3      19.940  16.138  19.854  0.00  0.00    +0.143 C 
BRANCH  72  73
ATOM     73  CG  ASP A   3      20.829  14.935  20.105  0.00  0.00    +0.367 C 
ATOM     74  OD2 ASP A   3      20.600  14.288  21.138  0.00  0.00    -0.246 OA
ATOM     75  OD1 ASP A   3      21.745  14.634  19.323  0.00  0.00    -0.246 OA
ENDBRANCH  72  73
ENDBRANCH  54  72
ENDBRANCH  50  54
ENDBRANCH  49  52
BRANCH  49  76
ATOM     76  CB  THR A   4      21.627  15.639  14.044  0.00  0.00    +0.137 C 
ATOM     77  CG2 THR A   4      21.287  17.064  13.571  0.00  0.00    +0.034 C 
BRANCH  76  78
ATOM     78  OG1 THR A   4      22.988  15.601  14.502  0.00  0.00    -0.382 OA
ATOM     79  HG1 THR A   4      23.219  14.676  14.770  0.00  0.00    +0.210 HD
ENDBRANCH  76  78
ENDBRANCH  49  76
ENDBRANCH  45  49
ENDBRANCH  44  46
ENDBRANCH  40  44
ENDBRANCH   1  41
BRANCH   1  80
ATOM     80  CB  THR A   6      18.304  11.804  19.861  0.00  0.00    +0.137 C 
ATOM     81  CG2 THR A   6      17.010  11.266  20.381  0.00  0.00    +0.034 C 
BRANCH  80  82
ATOM     82  OG1 THR A   6      19.342  11.601  20.825  0.00  0.00    -0.382 OA
ATOM     83  HG1 THR A   6      20.185  11.998  20.489  0.00  0.00    +0.210 HD
ENDBRANCH  80  82
ENDBRANCH   1  80
TORSDOF 36
REMARK  Name = ../refined-set-2016/2web/2web_pocket.pdb
REMARK  255 active torsions:
REMARK  status: ('A' for Active; 'I' for Inactive)
REMARK    1  A    between atoms: _1  and  _3
REMARK    2  A    between atoms: _3  and  _4
REMARK    3  A    between atoms: _3  and  _6
REMARK    4  A    between atoms: _6  and  _7
REMARK    5  A    between atoms: _10  and  _12
REMARK    6  A    between atoms: _12  and  _13
REMARK    7  A    between atoms: _12  and  _15
REMARK    8  A    between atoms: _15  and  _16
REMARK    9  A    between atoms: _16  and  _17
REMARK   10  A    between atoms: _20  and  _22
REMARK   11  A    between atoms: _22  and  _23
REMARK   12  A    between atoms: _22  and  _25
REMARK   13  A    between atoms: _25  and  _26
REMARK   14  A    between atoms: _26  and  _27
REMARK   15  A    between atoms: _30  and  _32
REMARK   16  A    between atoms: _32  and  _33
REMARK   17  A    between atoms: _32  and  _35
REMARK   18  A    between atoms: _35  and  _36
REMARK   19  A    between atoms: _41  and  _42
REMARK   20  A    between atoms: _44  and  _46
REMARK   21  A    between atoms: _46  and  _47
REMARK   22  A    between atoms: _46  and  _49
REMARK   23  A    between atoms: _49  and  _50
REMARK   24  A    between atoms: _55  and  _57
REMARK   25  A    between atoms: _57  and  _58
REMARK   26  A    between atoms: _57  and  _60
REMARK   27  A    between atoms: _60  and  _61
REMARK   28  A    between atoms: _67  and  _69
REMARK   29  A    between atoms: _69  and  _70
REMARK   30  A    between atoms: _69  and  _72
REMARK   31  A    between atoms: _72  and  _73
REMARK   32  A    between atoms: _76  and  _78
REMARK   33  A    between atoms: _78  and  _79
REMARK   34  A    between atoms: _78  and  _81
REMARK   35  A    between atoms: _81  and  _82
REMARK   36  A    between atoms: _85  and  _87
REMARK   37  A    between atoms: _87  and  _88
REMARK   38  A    between atoms: _90  and  _92
REMARK   39  A    between atoms: _92  and  _93
REMARK   40  A    between atoms: _92  and  _95
REMARK   41  A    between atoms: _95  and  _96
REMARK   42  A    between atoms: _98  and  _100
REMARK   43  A    between atoms: _100  and  _101
REMARK   44  A    between atoms: _104  and  _106
REMARK   45  A    between atoms: _106  and  _107
REMARK   46  A    between atoms: _106  and  _109
REMARK   47  A    between atoms: _109  and  _110
REMARK   48  A    between atoms: _113  and  _115
REMARK   49  A    between atoms: _115  and  _116
REMARK   50  A    between atoms: _115  and  _118
REMARK   51  A    between atoms: _118  and  _119
REMARK   52  A    between atoms: _129  and  _131
REMARK   53  A    between atoms: _131  and  _132
REMARK   54  A    between atoms: _131  and  _134
REMARK   55  A    between atoms: _134  and  _135
REMARK   56  A    between atoms: _138  and  _140
REMARK   57  A    between atoms: _140  and  _141
REMARK   58  A    between atoms: _140  and  _143
REMARK   59  A    between atoms: _143  and  _144
REMARK   60  A    between atoms: _146  and  _148
REMARK   61  A    between atoms: _148  and  _149
REMARK   62  A    between atoms: _148  and  _151
REMARK   63  A    between atoms: _151  and  _152
REMARK   64  A    between atoms: _157  and  _158
REMARK   65  A    between atoms: _160  and  _162
REMARK   66  A    between atoms: _162  and  _163
REMARK   67  A    between atoms: _165  and  _167
REMARK   68  A    between atoms: _167  and  _168
REMARK   69  A    between atoms: _167  and  _170
REMARK   70  A    between atoms: _170  and  _171
REMARK   71  A    between atoms: _174  and  _176
REMARK   72  A    between atoms: _176  and  _177
REMARK   73  A    between atoms: _179  and  _181
REMARK   74  A    between atoms: _181  and  _182
REMARK   75  A    between atoms: _181  and  _184
REMARK   76  A    between atoms: _184  and  _185
REMARK   77  A    between atoms: _187  and  _189
REMARK   78  A    between atoms: _189  and  _190
REMARK   79  A    between atoms: _189  and  _192
REMARK   80  A    between atoms: _192  and  _193
REMARK   81  A    between atoms: _195  and  _197
REMARK   82  A    between atoms: _197  and  _198
REMARK   83  A    between atoms: _197  and  _200
REMARK   84  A    between atoms: _200  and  _201
REMARK   85  A    between atoms: _203  and  _205
REMARK   86  A    between atoms: _205  and  _206
REMARK   87  A    between atoms: _209  and  _211
REMARK   88  A    between atoms: _211  and  _212
REMARK   89  A    between atoms: _211  and  _214
REMARK   90  A    between atoms: _214  and  _215
REMARK   91  A    between atoms: _215  and  _216
REMARK   92  A    between atoms: _221  and  _223
REMARK   93  A    between atoms: _223  and  _224
REMARK   94  A    between atoms: _223  and  _226
REMARK   95  A    between atoms: _226  and  _227
REMARK   96  A    between atoms: _233  and  _235
REMARK   97  A    between atoms: _235  and  _236
REMARK   98  A    between atoms: _235  and  _238
REMARK   99  A    between atoms: _238  and  _239
REMARK  100  A    between atoms: _239  and  _240
REMARK  101  A    between atoms: _245  and  _247
REMARK  102  A    between atoms: _247  and  _248
REMARK  103  A    between atoms: _247  and  _250
REMARK  104  A    between atoms: _250  and  _251
REMARK  105  A    between atoms: _251  and  _252
REMARK  106  A    between atoms: _257  and  _259
REMARK  107  A    between atoms: _259  and  _260
REMARK  108  A    between atoms: _259  and  _262
REMARK  109  A    between atoms: _262  and  _263
REMARK  110  A    between atoms: _266  and  _268
REMARK  111  A    between atoms: _268  and  _269
REMARK  112  A    between atoms: _268  and  _271
REMARK  113  A    between atoms: _271  and  _272
REMARK  114  A    between atoms: _275  and  _277
REMARK  115  A    between atoms: _277  and  _278
REMARK  116  A    between atoms: _277  and  _280
REMARK  117  A    between atoms: _280  and  _281
REMARK  118  A    between atoms: _286  and  _288
REMARK  119  A    between atoms: _288  and  _289
REMARK  120  A    between atoms: _288  and  _291
REMARK  121  A    between atoms: _291  and  _292
REMARK  122  A    between atoms: _297  and  _299
REMARK  123  A    between atoms: _299  and  _300
REMARK  124  A    between atoms: _302  and  _304
REMARK  125  A    between atoms: _304  and  _305
REMARK  126  A    between atoms: _304  and  _307
REMARK  127  A    between atoms: _307  and  _308
REMARK  128  A    between atoms: _311  and  _313
REMARK  129  A    between atoms: _313  and  _314
REMARK  130  A    between atoms: _316  and  _318
REMARK  131  A    between atoms: _318  and  _319
REMARK  132  A    between atoms: _318  and  _321
REMARK  133  A    between atoms: _321  and  _322
REMARK  134  A    between atoms: _325  and  _327
REMARK  135  A    between atoms: _327  and  _328
REMARK  136  A    between atoms: _331  and  _333
REMARK  137  A    between atoms: _333  and  _334
REMARK  138  A    between atoms: _333  and  _336
REMARK  139  A    between atoms: _336  and  _337
REMARK  140  A    between atoms: _340  and  _342
REMARK  141  A    between atoms: _342  and  _343
REMARK  142  A    between atoms: _342  and  _345
REMARK  143  A    between atoms: _345  and  _346
REMARK  144  A    between atoms: _349  and  _351
REMARK  145  A    between atoms: _351  and  _352
REMARK  146  A    between atoms: _351  and  _354
REMARK  147  A    between atoms: _354  and  _355
REMARK  148  A    between atoms: _355  and  _356
REMARK  149  A    between atoms: _361  and  _363
REMARK  150  A    between atoms: _363  and  _364
REMARK  151  A    between atoms: _363  and  _366
REMARK  152  A    between atoms: _366  and  _367
REMARK  153  A    between atoms: _373  and  _375
REMARK  154  A    between atoms: _375  and  _376
REMARK  155  A    between atoms: _375  and  _378
REMARK  156  A    between atoms: _378  and  _379
REMARK  157  A    between atoms: _382  and  _384
REMARK  158  A    between atoms: _384  and  _385
REMARK  159  A    between atoms: _388  and  _390
REMARK  160  A    between atoms: _390  and  _391
REMARK  161  A    between atoms: _390  and  _393
REMARK  162  A    between atoms: _393  and  _394
REMARK  163  A    between atoms: _397  and  _399
REMARK  164  A    between atoms: _399  and  _400
REMARK  165  A    between atoms: _399  and  _402
REMARK  166  A    between atoms: _402  and  _403
REMARK  167  A    between atoms: _406  and  _408
REMARK  168  A    between atoms: _408  and  _409
REMARK  169  A    between atoms: _411  and  _413
REMARK  170  A    between atoms: _413  and  _414
REMARK  171  A    between atoms: _413  and  _416
REMARK  172  A    between atoms: _416  and  _417
REMARK  173  A    between atoms: _420  and  _422
REMARK  174  A    between atoms: _422  and  _423
REMARK  175  A    between atoms: _422  and  _425
REMARK  176  A    between atoms: _425  and  _426
REMARK  177  A    between atoms: _429  and  _431
REMARK  178  A    between atoms: _431  and  _432
REMARK  179  A    between atoms: _431  and  _434
REMARK  180  A    between atoms: _434  and  _435
REMARK  181  A    between atoms: _438  and  _440
REMARK  182  A    between atoms: _440  and  _441
REMARK  183  A    between atoms: _440  and  _443
REMARK  184  A    between atoms: _443  and  _444
REMARK  185  A    between atoms: _447  and  _449
REMARK  186  A    between atoms: _449  and  _450
REMARK  187  A    between atoms: _449  and  _452
REMARK  188  A    between atoms: _452  and  _453
REMARK  189  A    between atoms: _456  and  _458
REMARK  190  A    between atoms: _458  and  _459
REMARK  191  A    between atoms: _458  and  _461
REMARK  192  A    between atoms: _461  and  _462
REMARK  193  A    between atoms: _464  and  _466
REMARK  194  A    between atoms: _466  and  _467
REMARK  195  A    between atoms: _466  and  _469
REMARK  196  A    between atoms: _469  and  _470
REMARK  197  A    between atoms: _475  and  _477
REMARK  198  A    between atoms: _477  and  _478
REMARK  199  A    between atoms: _477  and  _480
REMARK  200  A    between atoms: _480  and  _481
REMARK  201  A    between atoms: _483  and  _485
REMARK  202  A    between atoms: _485  and  _486
REMARK  203  A    between atoms: _485  and  _488
REMARK  204  A    between atoms: _488  and  _489
REMARK  205  A    between atoms: _492  and  _494
REMARK  206  A    between atoms: _494  and  _495
REMARK  207  A    between atoms: _494  and  _497
REMARK  208  A    between atoms: _497  and  _498
REMARK  209  A    between atoms: _504  and  _506
REMARK  210  A    between atoms: _506  and  _507
REMARK  211  A    between atoms: _506  and  _509
REMARK  212  A    between atoms: _509  and  _510
REMARK  213  A    between atoms: _512  and  _514
REMARK  214  A    between atoms: _514  and  _515
REMARK  215  A    between atoms: _514  and  _517
REMARK  216  A    between atoms: _517  and  _518
REMARK  217  A    between atoms: _521  and  _523
REMARK  218  A    between atoms: _523  and  _524
REMARK  219  A    between atoms: _523  and  _526
REMARK  220  A    between atoms: _526  and  _527
REMARK  221  A    between atoms: _533  and  _535
REMARK  222  A    between atoms: _535  and  _536
REMARK  223  A    between atoms: _538  and  _540
REMARK  224  A    between atoms: _540  and  _541
REMARK  225  A    between atoms: _540  and  _543
REMARK  226  A    between atoms: _543  and  _544
REMARK  227  A    between atoms: _547  and  _549
REMARK  228  A    between atoms: _549  and  _550
REMARK  229  A    between atoms: _552  and  _554
REMARK  230  A    between atoms: _554  and  _555
REMARK  231  A    between atoms: _554  and  _557
REMARK  232  A    between atoms: _557  and  _558
REMARK  233  A    between atoms: _563  and  _564
REMARK  234  A    between atoms: _566  and  _568
REMARK  235  A    between atoms: _568  and  _569
REMARK  236  A    between atoms: _568  and  _571
REMARK  237  A    between atoms: _571  and  _572
REMARK  238  A    between atoms: _575  and  _577
REMARK  239  A    between atoms: _577  and  _578
REMARK  240  A    between atoms: _577  and  _580
REMARK  241  A    between atoms: _580  and  _581
REMARK  242  A    between atoms: _584  and  _586
REMARK  243  A    between atoms: _586  and  _587
REMARK  244  A    between atoms: _586  and  _589
REMARK  245  A    between atoms: _592  and  _594
REMARK  246  A    between atoms: _594  and  _595
REMARK  247  A    between atoms: _594  and  _597
REMARK  248  A    between atoms: _597  and  _598
REMARK  249  A    between atoms: _598  and  _599
REMARK  250  A    between atoms: _605  and  _606
REMARK  251  A    between atoms: _611  and  _613
REMARK  252  A    between atoms: _613  and  _614
REMARK  253  A    between atoms: _613  and  _616
REMARK  254  A    between atoms: _616  and  _617
REMARK  255  A    between atoms: _617  and  _618
REMARK                            x       y       z     vdW  Elec       q    Type
REMARK                         _______ _______ _______ _____ _____    ______ ____
ROOT
ATOM      1  CA  ASN A   2      13.016  11.779  28.168  0.00  0.00    +0.158 C 
ENDROOT
BRANCH   1   3
ATOM      2  C   SER A   1      11.247  10.333  27.293  0.00  0.00    +0.241 C 
ATOM      3  N   ASN A   2      11.628  11.416  27.965  0.00  0.00    -0.297 N 
ATOM      4  H   ASN A   2      10.893  12.033  28.365  0.00  0.00    +0.150 HD
ATOM      5  O   SER A   1      12.037   9.579  26.729  0.00  0.00    -0.274 OA
BRANCH   2   6
ATOM      6  CA  SER A   1       9.752  10.065  27.276  0.00  0.00    +0.174 C 
BRANCH   6   7
ATOM      7  N   SER A   1       9.222   9.464  26.045  0.00  0.00    -0.236 NA
ATOM      8  H   SER A   1       8.863   8.488  26.073  0.00  0.00    +0.142 HD
ENDBRANCH   6   7
BRANCH   6   9
ATOM      9  CB  SER A   1       9.420   9.136  28.437  0.00  0.00    +0.163 C 
BRANCH   9  10
ATOM     10  OG  SER A   1      10.182   9.467  29.581  0.00  0.00    -0.380 OA
ATOM     11  H   SER A   1       9.983  10.398  29.851  0.00  0.00    +0.211 HD
ENDBRANCH   9  10
ENDBRANCH   6   9
ENDBRANCH   2   6
ENDBRANCH   1   3
BRANCH   1  12
ATOM     12  C   ASN A   2      13.576  11.168  29.454  0.00  0.00    +0.241 C 
ATOM     13  N   SER A   3      12.808  10.280  30.078  0.00  0.00    -0.296 N 
ATOM     14  H   SER A   3      11.856  10.072  29.715  0.00  0.00    +0.150 HD
ATOM     15  O   ASN A   2      14.692  11.489  29.882  0.00  0.00    -0.273 OA
BRANCH  13  16
ATOM     16  CA  SER A   3      13.299   9.594  31.274  0.00  0.00    +0.166 C 
BRANCH  16  17
ATOM     17  C   SER A   3      13.532  10.476  32.481  0.00  0.00    +0.229 C 
ATOM     18  O   SER A   3      14.320  10.108  33.354  0.00  0.00    -0.286 OA
ENDBRANCH  16  17
BRANCH  16  19
ATOM     19  CB  SER A   3      14.607   8.845  30.992  0.00  0.00    +0.165 C 
BRANCH  19  20
ATOM     20  OG  SER A   3      14.423   7.830  30.020  0.00  0.00    -0.380 OA
ATOM     21  H   SER A   3      14.105   8.237  29.175  0.00  0.00    +0.211 HD
ENDBRANCH  19  20
ENDBRANCH  16  19
ENDBRANCH  13  16
ENDBRANCH   1  12
BRANCH   1  22
ATOM     22  CB  ASN A   2      13.222  13.303  28.142  0.00  0.00    +0.114 C 
BRANCH  22  23
ATOM     23  CG  ASN A   2      12.536  14.013  29.282  0.00  0.00    +0.222 C 
ATOM     24  OD1 ASN A   2      11.923  13.383  30.152  0.00  0.00    -0.275 OA
ATOM     25  ND2 ASN A   2      12.557  15.347  29.241  0.00  0.00    -0.329 N 
ATOM     26 HD21 ASN A   2      12.044  15.897  29.959  0.00  0.00    +0.145 HD
ATOM     27 HD22 ASN A   2      13.086  15.836  28.491  0.00  0.00    +0.145 HD
ENDBRANCH  22  23
ENDBRANCH   1  22
TORSDOF 12
REMARK  Name = ../refined-set-2016/2web/2web_pocket.pdb
REMARK  255 active torsions:
REMARK  status: ('A' for Active; 'I' for Inactive)
REMARK    1  A    between atoms: _1  and  _3
REMARK    2  A    between atoms: _3  and  _4
REMARK    3  A    between atoms: _3  and  _6
REMARK    4  A    between atoms: _6  and  _7
REMARK    5  A    between atoms: _10  and  _12
REMARK    6  A    between atoms: _12  and  _13
REMARK    7  A    between atoms: _12  and  _15
REMARK    8  A    between atoms: _15  and  _16
REMARK    9  A    between atoms: _16  and  _17
REMARK   10  A    between atoms: _20  and  _22
REMARK   11  A    between atoms: _22  and  _23
REMARK   12  A    between atoms: _22  and  _25
REMARK   13  A    between atoms: _25  and  _26
REMARK   14  A    between atoms: _26  and  _27
REMARK   15  A    between atoms: _30  and  _32
REMARK   16  A    between atoms: _32  and  _33
REMARK   17  A    between atoms: _32  and  _35
REMARK   18  A    between atoms: _35  and  _36
REMARK   19  A    between atoms: _41  and  _42
REMARK   20  A    between atoms: _44  and  _46
REMARK   21  A    between atoms: _46  and  _47
REMARK   22  A    between atoms: _46  and  _49
REMARK   23  A    between atoms: _49  and  _50
REMARK   24  A    between atoms: _55  and  _57
REMARK   25  A    between atoms: _57  and  _58
REMARK   26  A    between atoms: _57  and  _60
REMARK   27  A    between atoms: _60  and  _61
REMARK   28  A    between atoms: _67  and  _69
REMARK   29  A    between atoms: _69  and  _70
REMARK   30  A    between atoms: _69  and  _72
REMARK   31  A    between atoms: _72  and  _73
REMARK   32  A    between atoms: _76  and  _78
REMARK   33  A    between atoms: _78  and  _79
REMARK   34  A    between atoms: _78  and  _81
REMARK   35  A    between atoms: _81  and  _82
REMARK   36  A    between atoms: _85  and  _87
REMARK   37  A    between atoms: _87  and  _88
REMARK   38  A    between atoms: _90  and  _92
REMARK   39  A    between atoms: _92  and  _93
REMARK   40  A    between atoms: _92  and  _95
REMARK   41  A    between atoms: _95  and  _96
REMARK   42  A    between atoms: _98  and  _100
REMARK   43  A    between atoms: _100  and  _101
REMARK   44  A    between atoms: _104  and  _106
REMARK   45  A    between atoms: _106  and  _107
REMARK   46  A    between atoms: _106  and  _109
REMARK   47  A    between atoms: _109  and  _110
REMARK   48  A    between atoms: _113  and  _115
REMARK   49  A    between atoms: _115  and  _116
REMARK   50  A    between atoms: _115  and  _118
REMARK   51  A    between atoms: _118  and  _119
REMARK   52  A    between atoms: _129  and  _131
REMARK   53  A    between atoms: _131  and  _132
REMARK   54  A    between atoms: _131  and  _134
REMARK   55  A    between atoms: _134  and  _135
REMARK   56  A    between atoms: _138  and  _140
REMARK   57  A    between atoms: _140  and  _141
REMARK   58  A    between atoms: _140  and  _143
REMARK   59  A    between atoms: _143  and  _144
REMARK   60  A    between atoms: _146  and  _148
REMARK   61  A    between atoms: _148  and  _149
REMARK   62  A    between atoms: _148  and  _151
REMARK   63  A    between atoms: _151  and  _152
REMARK   64  A    between atoms: _157  and  _158
REMARK   65  A    between atoms: _160  and  _162
REMARK   66  A    between atoms: _162  and  _163
REMARK   67  A    between atoms: _165  and  _167
REMARK   68  A    between atoms: _167  and  _168
REMARK   69  A    between atoms: _167  and  _170
REMARK   70  A    between atoms: _170  and  _171
REMARK   71  A    between atoms: _174  and  _176
REMARK   72  A    between atoms: _176  and  _177
REMARK   73  A    between atoms: _179  and  _181
REMARK   74  A    between atoms: _181  and  _182
REMARK   75  A    between atoms: _181  and  _184
REMARK   76  A    between atoms: _184  and  _185
REMARK   77  A    between atoms: _187  and  _189
REMARK   78  A    between atoms: _189  and  _190
REMARK   79  A    between atoms: _189  and  _192
REMARK   80  A    between atoms: _192  and  _193
REMARK   81  A    between atoms: _195  and  _197
REMARK   82  A    between atoms: _197  and  _198
REMARK   83  A    between atoms: _197  and  _200
REMARK   84  A    between atoms: _200  and  _201
REMARK   85  A    between atoms: _203  and  _205
REMARK   86  A    between atoms: _205  and  _206
REMARK   87  A    between atoms: _209  and  _211
REMARK   88  A    between atoms: _211  and  _212
REMARK   89  A    between atoms: _211  and  _214
REMARK   90  A    between atoms: _214  and  _215
REMARK   91  A    between atoms: _215  and  _216
REMARK   92  A    between atoms: _221  and  _223
REMARK   93  A    between atoms: _223  and  _224
REMARK   94  A    between atoms: _223  and  _226
REMARK   95  A    between atoms: _226  and  _227
REMARK   96  A    between atoms: _233  and  _235
REMARK   97  A    between atoms: _235  and  _236
REMARK   98  A    between atoms: _235  and  _238
REMARK   99  A    between atoms: _238  and  _239
REMARK  100  A    between atoms: _239  and  _240
REMARK  101  A    between atoms: _245  and  _247
REMARK  102  A    between atoms: _247  and  _248
REMARK  103  A    between atoms: _247  and  _250
REMARK  104  A    between atoms: _250  and  _251
REMARK  105  A    between atoms: _251  and  _252
REMARK  106  A    between atoms: _257  and  _259
REMARK  107  A    between atoms: _259  and  _260
REMARK  108  A    between atoms: _259  and  _262
REMARK  109  A    between atoms: _262  and  _263
REMARK  110  A    between atoms: _266  and  _268
REMARK  111  A    between atoms: _268  and  _269
REMARK  112  A    between atoms: _268  and  _271
REMARK  113  A    between atoms: _271  and  _272
REMARK  114  A    between atoms: _275  and  _277
REMARK  115  A    between atoms: _277  and  _278
REMARK  116  A    between atoms: _277  and  _280
REMARK  117  A    between atoms: _280  and  _281
REMARK  118  A    between atoms: _286  and  _288
REMARK  119  A    between atoms: _288  and  _289
REMARK  120  A    between atoms: _288  and  _291
REMARK  121  A    between atoms: _291  and  _292
REMARK  122  A    between atoms: _297  and  _299
REMARK  123  A    between atoms: _299  and  _300
REMARK  124  A    between atoms: _302  and  _304
REMARK  125  A    between atoms: _304  and  _305
REMARK  126  A    between atoms: _304  and  _307
REMARK  127  A    between atoms: _307  and  _308
REMARK  128  A    between atoms: _311  and  _313
REMARK  129  A    between atoms: _313  and  _314
REMARK  130  A    between atoms: _316  and  _318
REMARK  131  A    between atoms: _318  and  _319
REMARK  132  A    between atoms: _318  and  _321
REMARK  133  A    between atoms: _321  and  _322
REMARK  134  A    between atoms: _325  and  _327
REMARK  135  A    between atoms: _327  and  _328
REMARK  136  A    between atoms: _331  and  _333
REMARK  137  A    between atoms: _333  and  _334
REMARK  138  A    between atoms: _333  and  _336
REMARK  139  A    between atoms: _336  and  _337
REMARK  140  A    between atoms: _340  and  _342
REMARK  141  A    between atoms: _342  and  _343
REMARK  142  A    between atoms: _342  and  _345
REMARK  143  A    between atoms: _345  and  _346
REMARK  144  A    between atoms: _349  and  _351
REMARK  145  A    between atoms: _351  and  _352
REMARK  146  A    between atoms: _351  and  _354
REMARK  147  A    between atoms: _354  and  _355
REMARK  148  A    between atoms: _355  and  _356
REMARK  149  A    between atoms: _361  and  _363
REMARK  150  A    between atoms: _363  and  _364
REMARK  151  A    between atoms: _363  and  _366
REMARK  152  A    between atoms: _366  and  _367
REMARK  153  A    between atoms: _373  and  _375
REMARK  154  A    between atoms: _375  and  _376
REMARK  155  A    between atoms: _375  and  _378
REMARK  156  A    between atoms: _378  and  _379
REMARK  157  A    between atoms: _382  and  _384
REMARK  158  A    between atoms: _384  and  _385
REMARK  159  A    between atoms: _388  and  _390
REMARK  160  A    between atoms: _390  and  _391
REMARK  161  A    between atoms: _390  and  _393
REMARK  162  A    between atoms: _393  and  _394
REMARK  163  A    between atoms: _397  and  _399
REMARK  164  A    between atoms: _399  and  _400
REMARK  165  A    between atoms: _399  and  _402
REMARK  166  A    between atoms: _402  and  _403
REMARK  167  A    between atoms: _406  and  _408
REMARK  168  A    between atoms: _408  and  _409
REMARK  169  A    between atoms: _411  and  _413
REMARK  170  A    between atoms: _413  and  _414
REMARK  171  A    between atoms: _413  and  _416
REMARK  172  A    between atoms: _416  and  _417
REMARK  173  A    between atoms: _420  and  _422
REMARK  174  A    between atoms: _422  and  _423
REMARK  175  A    between atoms: _422  and  _425
REMARK  176  A    between atoms: _425  and  _426
REMARK  177  A    between atoms: _429  and  _431
REMARK  178  A    between atoms: _431  and  _432
REMARK  179  A    between atoms: _431  and  _434
REMARK  180  A    between atoms: _434  and  _435
REMARK  181  A    between atoms: _438  and  _440
REMARK  182  A    between atoms: _440  and  _441
REMARK  183  A    between atoms: _440  and  _443
REMARK  184  A    between atoms: _443  and  _444
REMARK  185  A    between atoms: _447  and  _449
REMARK  186  A    between atoms: _449  and  _450
REMARK  187  A    between atoms: _449  and  _452
REMARK  188  A    between atoms: _452  and  _453
REMARK  189  A    between atoms: _456  and  _458
REMARK  190  A    between atoms: _458  and  _459
REMARK  191  A    between atoms: _458  and  _461
REMARK  192  A    between atoms: _461  and  _462
REMARK  193  A    between atoms: _464  and  _466
REMARK  194  A    between atoms: _466  and  _467
REMARK  195  A    between atoms: _466  and  _469
REMARK  196  A    between atoms: _469  and  _470
REMARK  197  A    between atoms: _475  and  _477
REMARK  198  A    between atoms: _477  and  _478
REMARK  199  A    between atoms: _477  and  _480
REMARK  200  A    between atoms: _480  and  _481
REMARK  201  A    between atoms: _483  and  _485
REMARK  202  A    between atoms: _485  and  _486
REMARK  203  A    between atoms: _485  and  _488
REMARK  204  A    between atoms: _488  and  _489
REMARK  205  A    between atoms: _492  and  _494
REMARK  206  A    between atoms: _494  and  _495
REMARK  207  A    between atoms: _494  and  _497
REMARK  208  A    between atoms: _497  and  _498
REMARK  209  A    between atoms: _504  and  _506
REMARK  210  A    between atoms: _506  and  _507
REMARK  211  A    between atoms: _506  and  _509
REMARK  212  A    between atoms: _509  and  _510
REMARK  213  A    between atoms: _512  and  _514
REMARK  214  A    between atoms: _514  and  _515
REMARK  215  A    between atoms: _514  and  _517
REMARK  216  A    between atoms: _517  and  _518
REMARK  217  A    between atoms: _521  and  _523
REMARK  218  A    between atoms: _523  and  _524
REMARK  219  A    between atoms: _523  and  _526
REMARK  220  A    between atoms: _526  and  _527
REMARK  221  A    between atoms: _533  and  _535
REMARK  222  A    between atoms: _535  and  _536
REMARK  223  A    between atoms: _538  and  _540
REMARK  224  A    between atoms: _540  and  _541
REMARK  225  A    between atoms: _540  and  _543
REMARK  226  A    between atoms: _543  and  _544
REMARK  227  A    between atoms: _547  and  _549
REMARK  228  A    between atoms: _549  and  _550
REMARK  229  A    between atoms: _552  and  _554
REMARK  230  A    between atoms: _554  and  _555
REMARK  231  A    between atoms: _554  and  _557
REMARK  232  A    between atoms: _557  and  _558
REMARK  233  A    between atoms: _563  and  _564
REMARK  234  A    between atoms: _566  and  _568
REMARK  235  A    between atoms: _568  and  _569
REMARK  236  A    between atoms: _568  and  _571
REMARK  237  A    between atoms: _571  and  _572
REMARK  238  A    between atoms: _575  and  _577
REMARK  239  A    between atoms: _577  and  _578
REMARK  240  A    between atoms: _577  and  _580
REMARK  241  A    between atoms: _580  and  _581
REMARK  242  A    between atoms: _584  and  _586
REMARK  243  A    between atoms: _586  and  _587
REMARK  244  A    between atoms: _586  and  _589
REMARK  245  A    between atoms: _592  and  _594
REMARK  246  A    between atoms: _594  and  _595
REMARK  247  A    between atoms: _594  and  _597
REMARK  248  A    between atoms: _597  and  _598
REMARK  249  A    between atoms: _598  and  _599
REMARK  250  A    between atoms: _605  and  _606
REMARK  251  A    between atoms: _611  and  _613
REMARK  252  A    between atoms: _613  and  _614
REMARK  253  A    between atoms: _613  and  _616
REMARK  254  A    between atoms: _616  and  _617
REMARK  255  A    between atoms: _617  and  _618
REMARK                            x       y       z     vdW  Elec       q    Type
REMARK                         _______ _______ _______ _____ _____    ______ ____
ROOT
ATOM      1  CA  ILE A   1      16.310  14.220  32.737  0.00  0.00    +0.133 C 
ENDROOT
BRANCH   1   2
ATOM      2  N   ILE A   1      15.060  13.452  32.685  0.00  0.00    -0.239 NA
ATOM      3  H   ILE A   1      14.775  12.989  31.798  0.00  0.00    +0.142 HD
ENDBRANCH   1   2
BRANCH   1   4
ATOM      4  C   ILE A   1      16.201  15.746  32.888  0.00  0.00    +0.224 C 
ATOM      5  O   ILE A   1      17.214  16.418  33.043  0.00  0.00    -0.287 OA
ENDBRANCH   1   4
BRANCH   1   6
ATOM      6  CB  ILE A   1      17.217  13.952  31.559  0.00  0.00    +0.023 C 
ATOM      7  CG2 ILE A   1      17.565  12.478  31.470  0.00  0.00    +0.002 C 
BRANCH   6   8
ATOM      8  CG1 ILE A   1      16.554  14.447  30.282  0.00  0.00    +0.002 C 
ATOM      9  CD1 ILE A   1      17.405  14.222  29.082  0.00  0.00    +0.000 C 
ENDBRANCH   6   8
ENDBRANCH   1   6
TORSDOF 4
REMARK  Name = ../refined-set-2016/2web/2web_pocket.pdb
REMARK  255 active torsions:
REMARK  status: ('A' for Active; 'I' for Inactive)
REMARK    1  A    between atoms: _1  and  _3
REMARK    2  A    between atoms: _3  and  _4
REMARK    3  A    between atoms: _3  and  _6
REMARK    4  A    between atoms: _6  and  _7
REMARK    5  A    between atoms: _10  and  _12
REMARK    6  A    between atoms: _12  and  _13
REMARK    7  A    between atoms: _12  and  _15
REMARK    8  A    between atoms: _15  and  _16
REMARK    9  A    between atoms: _16  and  _17
REMARK   10  A    between atoms: _20  and  _22
REMARK   11  A    between atoms: _22  and  _23
REMARK   12  A    between atoms: _22  and  _25
REMARK   13  A    between atoms: _25  and  _26
REMARK   14  A    between atoms: _26  and  _27
REMARK   15  A    between atoms: _30  and  _32
REMARK   16  A    between atoms: _32  and  _33
REMARK   17  A    between atoms: _32  and  _35
REMARK   18  A    between atoms: _35  and  _36
REMARK   19  A    between atoms: _41  and  _42
REMARK   20  A    between atoms: _44  and  _46
REMARK   21  A    between atoms: _46  and  _47
REMARK   22  A    between atoms: _46  and  _49
REMARK   23  A    between atoms: _49  and  _50
REMARK   24  A    between atoms: _55  and  _57
REMARK   25  A    between atoms: _57  and  _58
REMARK   26  A    between atoms: _57  and  _60
REMARK   27  A    between atoms: _60  and  _61
REMARK   28  A    between atoms: _67  and  _69
REMARK   29  A    between atoms: _69  and  _70
REMARK   30  A    between atoms: _69  and  _72
REMARK   31  A    between atoms: _72  and  _73
REMARK   32  A    between atoms: _76  and  _78
REMARK   33  A    between atoms: _78  and  _79
REMARK   34  A    between atoms: _78  and  _81
REMARK   35  A    between atoms: _81  and  _82
REMARK   36  A    between atoms: _85  and  _87
REMARK   37  A    between atoms: _87  and  _88
REMARK   38  A    between atoms: _90  and  _92
REMARK   39  A    between atoms: _92  and  _93
REMARK   40  A    between atoms: _92  and  _95
REMARK   41  A    between atoms: _95  and  _96
REMARK   42  A    between atoms: _98  and  _100
REMARK   43  A    between atoms: _100  and  _101
REMARK   44  A    between atoms: _104  and  _106
REMARK   45  A    between atoms: _106  and  _107
REMARK   46  A    between atoms: _106  and  _109
REMARK   47  A    between atoms: _109  and  _110
REMARK   48  A    between atoms: _113  and  _115
REMARK   49  A    between atoms: _115  and  _116
REMARK   50  A    between atoms: _115  and  _118
REMARK   51  A    between atoms: _118  and  _119
REMARK   52  A    between atoms: _129  and  _131
REMARK   53  A    between atoms: _131  and  _132
REMARK   54  A    between atoms: _131  and  _134
REMARK   55  A    between atoms: _134  and  _135
REMARK   56  A    between atoms: _138  and  _140
REMARK   57  A    between atoms: _140  and  _141
REMARK   58  A    between atoms: _140  and  _143
REMARK   59  A    between atoms: _143  and  _144
REMARK   60  A    between atoms: _146  and  _148
REMARK   61  A    between atoms: _148  and  _149
REMARK   62  A    between atoms: _148  and  _151
REMARK   63  A    between atoms: _151  and  _152
REMARK   64  A    between atoms: _157  and  _158
REMARK   65  A    between atoms: _160  and  _162
REMARK   66  A    between atoms: _162  and  _163
REMARK   67  A    between atoms: _165  and  _167
REMARK   68  A    between atoms: _167  and  _168
REMARK   69  A    between atoms: _167  and  _170
REMARK   70  A    between atoms: _170  and  _171
REMARK   71  A    between atoms: _174  and  _176
REMARK   72  A    between atoms: _176  and  _177
REMARK   73  A    between atoms: _179  and  _181
REMARK   74  A    between atoms: _181  and  _182
REMARK   75  A    between atoms: _181  and  _184
REMARK   76  A    between atoms: _184  and  _185
REMARK   77  A    between atoms: _187  and  _189
REMARK   78  A    between atoms: _189  and  _190
REMARK   79  A    between atoms: _189  and  _192
REMARK   80  A    between atoms: _192  and  _193
REMARK   81  A    between atoms: _195  and  _197
REMARK   82  A    between atoms: _197  and  _198
REMARK   83  A    between atoms: _197  and  _200
REMARK   84  A    between atoms: _200  and  _201
REMARK   85  A    between atoms: _203  and  _205
REMARK   86  A    between atoms: _205  and  _206
REMARK   87  A    between atoms: _209  and  _211
REMARK   88  A    between atoms: _211  and  _212
REMARK   89  A    between atoms: _211  and  _214
REMARK   90  A    between atoms: _214  and  _215
REMARK   91  A    between atoms: _215  and  _216
REMARK   92  A    between atoms: _221  and  _223
REMARK   93  A    between atoms: _223  and  _224
REMARK   94  A    between atoms: _223  and  _226
REMARK   95  A    between atoms: _226  and  _227
REMARK   96  A    between atoms: _233  and  _235
REMARK   97  A    between atoms: _235  and  _236
REMARK   98  A    between atoms: _235  and  _238
REMARK   99  A    between atoms: _238  and  _239
REMARK  100  A    between atoms: _239  and  _240
REMARK  101  A    between atoms: _245  and  _247
REMARK  102  A    between atoms: _247  and  _248
REMARK  103  A    between atoms: _247  and  _250
REMARK  104  A    between atoms: _250  and  _251
REMARK  105  A    between atoms: _251  and  _252
REMARK  106  A    between atoms: _257  and  _259
REMARK  107  A    between atoms: _259  and  _260
REMARK  108  A    between atoms: _259  and  _262
REMARK  109  A    between atoms: _262  and  _263
REMARK  110  A    between atoms: _266  and  _268
REMARK  111  A    between atoms: _268  and  _269
REMARK  112  A    between atoms: _268  and  _271
REMARK  113  A    between atoms: _271  and  _272
REMARK  114  A    between atoms: _275  and  _277
REMARK  115  A    between atoms: _277  and  _278
REMARK  116  A    between atoms: _277  and  _280
REMARK  117  A    between atoms: _280  and  _281
REMARK  118  A    between atoms: _286  and  _288
REMARK  119  A    between atoms: _288  and  _289
REMARK  120  A    between atoms: _288  and  _291
REMARK  121  A    between atoms: _291  and  _292
REMARK  122  A    between atoms: _297  and  _299
REMARK  123  A    between atoms: _299  and  _300
REMARK  124  A    between atoms: _302  and  _304
REMARK  125  A    between atoms: _304  and  _305
REMARK  126  A    between atoms: _304  and  _307
REMARK  127  A    between atoms: _307  and  _308
REMARK  128  A    between atoms: _311  and  _313
REMARK  129  A    between atoms: _313  and  _314
REMARK  130  A    between atoms: _316  and  _318
REMARK  131  A    between atoms: _318  and  _319
REMARK  132  A    between atoms: _318  and  _321
REMARK  133  A    between atoms: _321  and  _322
REMARK  134  A    between atoms: _325  and  _327
REMARK  135  A    between atoms: _327  and  _328
REMARK  136  A    between atoms: _331  and  _333
REMARK  137  A    between atoms: _333  and  _334
REMARK  138  A    between atoms: _333  and  _336
REMARK  139  A    between atoms: _336  and  _337
REMARK  140  A    between atoms: _340  and  _342
REMARK  141  A    between atoms: _342  and  _343
REMARK  142  A    between atoms: _342  and  _345
REMARK  143  A    between atoms: _345  and  _346
REMARK  144  A    between atoms: _349  and  _351
REMARK  145  A    between atoms: _351  and  _352
REMARK  146  A    between atoms: _351  and  _354
REMARK  147  A    between atoms: _354  and  _355
REMARK  148  A    between atoms: _355  and  _356
REMARK  149  A    between atoms: _361  and  _363
REMARK  150  A    between atoms: _363  and  _364
REMARK  151  A    between atoms: _363  and  _366
REMARK  152  A    between atoms: _366  and  _367
REMARK  153  A    between atoms: _373  and  _375
REMARK  154  A    between atoms: _375  and  _376
REMARK  155  A    between atoms: _375  and  _378
REMARK  156  A    between atoms: _378  and  _379
REMARK  157  A    between atoms: _382  and  _384
REMARK  158  A    between atoms: _384  and  _385
REMARK  159  A    between atoms: _388  and  _390
REMARK  160  A    between atoms: _390  and  _391
REMARK  161  A    between atoms: _390  and  _393
REMARK  162  A    between atoms: _393  and  _394
REMARK  163  A    between atoms: _397  and  _399
REMARK  164  A    between atoms: _399  and  _400
REMARK  165  A    between atoms: _399  and  _402
REMARK  166  A    between atoms: _402  and  _403
REMARK  167  A    between atoms: _406  and  _408
REMARK  168  A    between atoms: _408  and  _409
REMARK  169  A    between atoms: _411  and  _413
REMARK  170  A    between atoms: _413  and  _414
REMARK  171  A    between atoms: _413  and  _416
REMARK  172  A    between atoms: _416  and  _417
REMARK  173  A    between atoms: _420  and  _422
REMARK  174  A    between atoms: _422  and  _423
REMARK  175  A    between atoms: _422  and  _425
REMARK  176  A    between atoms: _425  and  _426
REMARK  177  A    between atoms: _429  and  _431
REMARK  178  A    between atoms: _431  and  _432
REMARK  179  A    between atoms: _431  and  _434
REMARK  180  A    between atoms: _434  and  _435
REMARK  181  A    between atoms: _438  and  _440
REMARK  182  A    between atoms: _440  and  _441
REMARK  183  A    between atoms: _440  and  _443
REMARK  184  A    between atoms: _443  and  _444
REMARK  185  A    between atoms: _447  and  _449
REMARK  186  A    between atoms: _449  and  _450
REMARK  187  A    between atoms: _449  and  _452
REMARK  188  A    between atoms: _452  and  _453
REMARK  189  A    between atoms: _456  and  _458
REMARK  190  A    between atoms: _458  and  _459
REMARK  191  A    between atoms: _458  and  _461
REMARK  192  A    between atoms: _461  and  _462
REMARK  193  A    between atoms: _464  and  _466
REMARK  194  A    between atoms: _466  and  _467
REMARK  195  A    between atoms: _466  and  _469
REMARK  196  A    between atoms: _469  and  _470
REMARK  197  A    between atoms: _475  and  _477
REMARK  198  A    between atoms: _477  and  _478
REMARK  199  A    between atoms: _477  and  _480
REMARK  200  A    between atoms: _480  and  _481
REMARK  201  A    between atoms: _483  and  _485
REMARK  202  A    between atoms: _485  and  _486
REMARK  203  A    between atoms: _485  and  _488
REMARK  204  A    between atoms: _488  and  _489
REMARK  205  A    between atoms: _492  and  _494
REMARK  206  A    between atoms: _494  and  _495
REMARK  207  A    between atoms: _494  and  _497
REMARK  208  A    between atoms: _497  and  _498
REMARK  209  A    between atoms: _504  and  _506
REMARK  210  A    between atoms: _506  and  _507
REMARK  211  A    between atoms: _506  and  _509
REMARK  212  A    between atoms: _509  and  _510
REMARK  213  A    between atoms: _512  and  _514
REMARK  214  A    between atoms: _514  and  _515
REMARK  215  A    between atoms: _514  and  _517
REMARK  216  A    between atoms: _517  and  _518
REMARK  217  A    between atoms: _521  and  _523
REMARK  218  A    between atoms: _523  and  _524
REMARK  219  A    between atoms: _523  and  _526
REMARK  220  A    between atoms: _526  and  _527
REMARK  221  A    between atoms: _533  and  _535
REMARK  222  A    between atoms: _535  and  _536
REMARK  223  A    between atoms: _538  and  _540
REMARK  224  A    between atoms: _540  and  _541
REMARK  225  A    between atoms: _540  and  _543
REMARK  226  A    between atoms: _543  and  _544
REMARK  227  A    between atoms: _547  and  _549
REMARK  228  A    between atoms: _549  and  _550
REMARK  229  A    between atoms: _552  and  _554
REMARK  230  A    between atoms: _554  and  _555
REMARK  231  A    between atoms: _554  and  _557
REMARK  232  A    between atoms: _557  and  _558
REMARK  233  A    between atoms: _563  and  _564
REMARK  234  A    between atoms: _566  and  _568
REMARK  235  A    between atoms: _568  and  _569
REMARK  236  A    between atoms: _568  and  _571
REMARK  237  A    between atoms: _571  and  _572
REMARK  238  A    between atoms: _575  and  _577
REMARK  239  A    between atoms: _577  and  _578
REMARK  240  A    between atoms: _577  and  _580
REMARK  241  A    between atoms: _580  and  _581
REMARK  242  A    between atoms: _584  and  _586
REMARK  243  A    between atoms: _586  and  _587
REMARK  244  A    between atoms: _586  and  _589
REMARK  245  A    between atoms: _592  and  _594
REMARK  246  A    between atoms: _594  and  _595
REMARK  247  A    between atoms: _594  and  _597
REMARK  248  A    between atoms: _597  and  _598
REMARK  249  A    between atoms: _598  and  _599
REMARK  250  A    between atoms: _605  and  _606
REMARK  251  A    between atoms: _611  and  _613
REMARK  252  A    between atoms: _613  and  _614
REMARK  253  A    between atoms: _613  and  _616
REMARK  254  A    between atoms: _616  and  _617
REMARK  255  A    between atoms: _617  and  _618
REMARK                            x       y       z     vdW  Elec       q    Type
REMARK                         _______ _______ _______ _____ _____    ______ ____
ROOT
ATOM      1  C   ILE A   3      14.993  16.475  21.840  0.00  0.00    +0.241 C 
ATOM      2  O   ILE A   3      14.078  15.701  21.524  0.00  0.00    -0.273 OA
ATOM      3  N   PHE A   4      15.351  17.516  21.099  0.00  0.00    -0.297 N 
ATOM      4  H   PHE A   4      16.086  18.164  21.448  0.00  0.00    +0.150 HD
ENDROOT
BRANCH   1   5
ATOM      5  CA  ILE A   3      15.709  16.319  23.179  0.00  0.00    +0.149 C 
BRANCH   5   8
ATOM      6  C   SER A   2      14.899  17.712  24.984  0.00  0.00    +0.243 C 
ATOM      7  O   SER A   2      15.851  18.481  24.877  0.00  0.00    -0.273 OA
ATOM      8  N   ILE A   3      14.772  16.615  24.247  0.00  0.00    -0.297 N 
ATOM      9  H   ILE A   3      13.989  15.958  24.438  0.00  0.00    +0.150 HD
BRANCH   6  10
ATOM     10  CA  SER A   2      13.856  17.891  26.069  0.00  0.00    +0.178 C 
BRANCH  10  13
ATOM     11  C   PHE A   1      14.803  18.079  28.291  0.00  0.00    +0.239 C 
ATOM     12  O   PHE A   1      14.817  16.863  28.456  0.00  0.00    -0.274 OA
ATOM     13  N   SER A   2      14.318  18.669  27.208  0.00  0.00    -0.295 N 
ATOM     14  H   SER A   2      14.267  19.707  27.172  0.00  0.00    +0.150 HD
BRANCH  11  15
ATOM     15  CA  PHE A   1      15.169  18.992  29.445  0.00  0.00    +0.149 C 
BRANCH  15  16
ATOM     16  N   PHE A   1      15.144  18.139  30.634  0.00  0.00    -0.238 NA
ATOM     17  H   PHE A   1      15.299  17.115  30.542  0.00  0.00    +0.142 HD
ENDBRANCH  15  16
BRANCH  15  18
ATOM     18  CB  PHE A   1      16.498  19.724  29.237  0.00  0.00    +0.053 C 
BRANCH  18  19
ATOM     19  CG  PHE A   1      17.679  18.810  29.067  0.00  0.00    -0.020 A 
ATOM     20  CD2 PHE A   1      18.343  18.309  30.175  0.00  0.00    -0.004 A 
ATOM     21  CE2 PHE A   1      19.450  17.471  30.022  0.00  0.00    -0.000 A 
ATOM     22  CZ  PHE A   1      19.840  17.058  28.767  0.00  0.00    -0.000 A 
ATOM     23  CE1 PHE A   1      19.163  17.524  27.654  0.00  0.00    -0.000 A 
ATOM     24  CD1 PHE A   1      18.087  18.404  27.805  0.00  0.00    -0.004 A 
ENDBRANCH  18  19
ENDBRANCH  15  18
ENDBRANCH  11  15
ENDBRANCH  10  13
BRANCH  10  25
ATOM     25  CB  SER A   2      12.565  18.490  25.526  0.00  0.00    +0.166 C 
BRANCH  25  26
ATOM     26  OG  SER A   2      11.557  18.462  26.534  0.00  0.00    -0.380 OA
ATOM     27  H   SER A   2      11.859  18.989  27.316  0.00  0.00    +0.211 HD
ENDBRANCH  25  26
ENDBRANCH  10  25
ENDBRANCH   6  10
ENDBRANCH   5   8
BRANCH   5  28
ATOM     28  CB  ILE A   3      16.299  14.902  23.307  0.00  0.00    +0.027 C 
ATOM     29  CG2 ILE A   3      17.231  14.626  22.124  0.00  0.00    +0.002 C 
BRANCH  28  30
ATOM     30  CG1 ILE A   3      17.103  14.767  24.605  0.00  0.00    +0.002 C 
ATOM     31  CD1 ILE A   3      16.267  14.803  25.850  0.00  0.00    +0.000 C 
ENDBRANCH  28  30
ENDBRANCH   5  28
ENDBRANCH   1   5
BRANCH   3  32
ATOM     32  CA  PHE A   4      14.726  17.767  19.796  0.00  0.00    +0.153 C 
BRANCH  32  33
ATOM     33  C   PHE A   4      15.510  17.002  18.744  0.00  0.00    +0.241 C 
ATOM     34  N   GLY A   5      15.153  15.719  18.632  0.00  0.00    -0.295 N 
ATOM     35  H   GLY A   5      14.374  15.381  19.232  0.00  0.00    +0.150 HD
ATOM     36  O   PHE A   4      16.453  17.517  18.145  0.00  0.00    -0.273 OA
BRANCH  34  37
ATOM     37  CA  GLY A   5      15.775  14.761  17.731  0.00  0.00    +0.176 C 
BRANCH  37  38
ATOM     38  C   GLY A   5      15.242  14.825  16.298  0.00  0.00    +0.243 C 
ATOM     39  O   GLY A   5      14.516  15.736  15.913  0.00  0.00    -0.273 OA
ATOM     40  N   ASP A   6      15.580  13.803  15.534  0.00  0.00    -0.297 N 
ATOM     41  H   ASP A   6      16.089  13.000  15.955  0.00  0.00    +0.150 HD
BRANCH  40  42
ATOM     42  CA  ASP A   6      15.259  13.776  14.128  0.00  0.00    +0.148 C 
BRANCH  42  43
ATOM     43  C   ASP A   6      13.796  13.973  13.775  0.00  0.00    +0.227 C 
ATOM     44  O   ASP A   6      13.503  14.550  12.721  0.00  0.00    -0.286 OA
ENDBRANCH  42  43
BRANCH  42  45
ATOM     45  CB  ASP A   6      15.783  12.479  13.504  0.00  0.00    +0.142 C 
BRANCH  45  46
ATOM     46  CG  ASP A   6      17.281  12.307  13.701  0.00  0.00    +0.367 C 
ATOM     47  OD2 ASP A   6      17.996  13.320  13.902  0.00  0.00    -0.246 OA
ATOM     48  OD1 ASP A   6      17.762  11.161  13.592  0.00  0.00    -0.246 OA
ENDBRANCH  45  46
ENDBRANCH  42  45
ENDBRANCH  40  42
ENDBRANCH  37  38
ENDBRANCH  34  37
ENDBRANCH  32  33
BRANCH  32  49
ATOM     49  CB  PHE A   4      14.696  19.277  19.518  0.00  0.00    +0.055 C 
BRANCH  49  50
ATOM     50  CG  PHE A   4      13.707  20.004  20.368  0.00  0.00    -0.020 A 
ATOM     51  CD2 PHE A   4      14.067  20.511  21.608  0.00  0.00    -0.004 A 
ATOM     52  CE2 PHE A   4      13.141  21.188  22.398  0.00  0.00    -0.000 A 
ATOM     53  CZ  PHE A   4      11.836  21.320  21.977  0.00  0.00    -0.000 A 
ATOM     54  CE1 PHE A   4      11.448  20.791  20.759  0.00  0.00    -0.000 A 
ATOM     55  CD1 PHE A   4      12.391  20.141  19.957  0.00  0.00    -0.004 A 
ENDBRANCH  49  50
ENDBRANCH  32  49
ENDBRANCH   3  32
TORSDOF 22
REMARK  Name = ../refined-set-2016/2web/2web_pocket.pdb
REMARK  255 active torsions:
REMARK  status: ('A' for Active; 'I' for Inactive)
REMARK    1  A    between atoms: _1  and  _3
REMARK    2  A    between atoms: _3  and  _4
REMARK    3  A    between atoms: _3  and  _6
REMARK    4  A    between atoms: _6  and  _7
REMARK    5  A    between atoms: _10  and  _12
REMARK    6  A    between atoms: _12  and  _13
REMARK    7  A    between atoms: _12  and  _15
REMARK    8  A    between atoms: _15  and  _16
REMARK    9  A    between atoms: _16  and  _17
REMARK   10  A    between atoms: _20  and  _22
REMARK   11  A    between atoms: _22  and  _23
REMARK   12  A    between atoms: _22  and  _25
REMARK   13  A    between atoms: _25  and  _26
REMARK   14  A    between atoms: _26  and  _27
REMARK   15  A    between atoms: _30  and  _32
REMARK   16  A    between atoms: _32  and  _33
REMARK   17  A    between atoms: _32  and  _35
REMARK   18  A    between atoms: _35  and  _36
REMARK   19  A    between atoms: _41  and  _42
REMARK   20  A    between atoms: _44  and  _46
REMARK   21  A    between atoms: _46  and  _47
REMARK   22  A    between atoms: _46  and  _49
REMARK   23  A    between atoms: _49  and  _50
REMARK   24  A    between atoms: _55  and  _57
REMARK   25  A    between atoms: _57  and  _58
REMARK   26  A    between atoms: _57  and  _60
REMARK   27  A    between atoms: _60  and  _61
REMARK   28  A    between atoms: _67  and  _69
REMARK   29  A    between atoms: _69  and  _70
REMARK   30  A    between atoms: _69  and  _72
REMARK   31  A    between atoms: _72  and  _73
REMARK   32  A    between atoms: _76  and  _78
REMARK   33  A    between atoms: _78  and  _79
REMARK   34  A    between atoms: _78  and  _81
REMARK   35  A    between atoms: _81  and  _82
REMARK   36  A    between atoms: _85  and  _87
REMARK   37  A    between atoms: _87  and  _88
REMARK   38  A    between atoms: _90  and  _92
REMARK   39  A    between atoms: _92  and  _93
REMARK   40  A    between atoms: _92  and  _95
REMARK   41  A    between atoms: _95  and  _96
REMARK   42  A    between atoms: _98  and  _100
REMARK   43  A    between atoms: _100  and  _101
REMARK   44  A    between atoms: _104  and  _106
REMARK   45  A    between atoms: _106  and  _107
REMARK   46  A    between atoms: _106  and  _109
REMARK   47  A    between atoms: _109  and  _110
REMARK   48  A    between atoms: _113  and  _115
REMARK   49  A    between atoms: _115  and  _116
REMARK   50  A    between atoms: _115  and  _118
REMARK   51  A    between atoms: _118  and  _119
REMARK   52  A    between atoms: _129  and  _131
REMARK   53  A    between atoms: _131  and  _132
REMARK   54  A    between atoms: _131  and  _134
REMARK   55  A    between atoms: _134  and  _135
REMARK   56  A    between atoms: _138  and  _140
REMARK   57  A    between atoms: _140  and  _141
REMARK   58  A    between atoms: _140  and  _143
REMARK   59  A    between atoms: _143  and  _144
REMARK   60  A    between atoms: _146  and  _148
REMARK   61  A    between atoms: _148  and  _149
REMARK   62  A    between atoms: _148  and  _151
REMARK   63  A    between atoms: _151  and  _152
REMARK   64  A    between atoms: _157  and  _158
REMARK   65  A    between atoms: _160  and  _162
REMARK   66  A    between atoms: _162  and  _163
REMARK   67  A    between atoms: _165  and  _167
REMARK   68  A    between atoms: _167  and  _168
REMARK   69  A    between atoms: _167  and  _170
REMARK   70  A    between atoms: _170  and  _171
REMARK   71  A    between atoms: _174  and  _176
REMARK   72  A    between atoms: _176  and  _177
REMARK   73  A    between atoms: _179  and  _181
REMARK   74  A    between atoms: _181  and  _182
REMARK   75  A    between atoms: _181  and  _184
REMARK   76  A    between atoms: _184  and  _185
REMARK   77  A    between atoms: _187  and  _189
REMARK   78  A    between atoms: _189  and  _190
REMARK   79  A    between atoms: _189  and  _192
REMARK   80  A    between atoms: _192  and  _193
REMARK   81  A    between atoms: _195  and  _197
REMARK   82  A    between atoms: _197  and  _198
REMARK   83  A    between atoms: _197  and  _200
REMARK   84  A    between atoms: _200  and  _201
REMARK   85  A    between atoms: _203  and  _205
REMARK   86  A    between atoms: _205  and  _206
REMARK   87  A    between atoms: _209  and  _211
REMARK   88  A    between atoms: _211  and  _212
REMARK   89  A    between atoms: _211  and  _214
REMARK   90  A    between atoms: _214  and  _215
REMARK   91  A    between atoms: _215  and  _216
REMARK   92  A    between atoms: _221  and  _223
REMARK   93  A    between atoms: _223  and  _224
REMARK   94  A    between atoms: _223  and  _226
REMARK   95  A    between atoms: _226  and  _227
REMARK   96  A    between atoms: _233  and  _235
REMARK   97  A    between atoms: _235  and  _236
REMARK   98  A    between atoms: _235  and  _238
REMARK   99  A    between atoms: _238  and  _239
REMARK  100  A    between atoms: _239  and  _240
REMARK  101  A    between atoms: _245  and  _247
REMARK  102  A    between atoms: _247  and  _248
REMARK  103  A    between atoms: _247  and  _250
REMARK  104  A    between atoms: _250  and  _251
REMARK  105  A    between atoms: _251  and  _252
REMARK  106  A    between atoms: _257  and  _259
REMARK  107  A    between atoms: _259  and  _260
REMARK  108  A    between atoms: _259  and  _262
REMARK  109  A    between atoms: _262  and  _263
REMARK  110  A    between atoms: _266  and  _268
REMARK  111  A    between atoms: _268  and  _269
REMARK  112  A    between atoms: _268  and  _271
REMARK  113  A    between atoms: _271  and  _272
REMARK  114  A    between atoms: _275  and  _277
REMARK  115  A    between atoms: _277  and  _278
REMARK  116  A    between atoms: _277  and  _280
REMARK  117  A    between atoms: _280  and  _281
REMARK  118  A    between atoms: _286  and  _288
REMARK  119  A    between atoms: _288  and  _289
REMARK  120  A    between atoms: _288  and  _291
REMARK  121  A    between atoms: _291  and  _292
REMARK  122  A    between atoms: _297  and  _299
REMARK  123  A    between atoms: _299  and  _300
REMARK  124  A    between atoms: _302  and  _304
REMARK  125  A    between atoms: _304  and  _305
REMARK  126  A    between atoms: _304  and  _307
REMARK  127  A    between atoms: _307  and  _308
REMARK  128  A    between atoms: _311  and  _313
REMARK  129  A    between atoms: _313  and  _314
REMARK  130  A    between atoms: _316  and  _318
REMARK  131  A    between atoms: _318  and  _319
REMARK  132  A    between atoms: _318  and  _321
REMARK  133  A    between atoms: _321  and  _322
REMARK  134  A    between atoms: _325  and  _327
REMARK  135  A    between atoms: _327  and  _328
REMARK  136  A    between atoms: _331  and  _333
REMARK  137  A    between atoms: _333  and  _334
REMARK  138  A    between atoms: _333  and  _336
REMARK  139  A    between atoms: _336  and  _337
REMARK  140  A    between atoms: _340  and  _342
REMARK  141  A    between atoms: _342  and  _343
REMARK  142  A    between atoms: _342  and  _345
REMARK  143  A    between atoms: _345  and  _346
REMARK  144  A    between atoms: _349  and  _351
REMARK  145  A    between atoms: _351  and  _352
REMARK  146  A    between atoms: _351  and  _354
REMARK  147  A    between atoms: _354  and  _355
REMARK  148  A    between atoms: _355  and  _356
REMARK  149  A    between atoms: _361  and  _363
REMARK  150  A    between atoms: _363  and  _364
REMARK  151  A    between atoms: _363  and  _366
REMARK  152  A    between atoms: _366  and  _367
REMARK  153  A    between atoms: _373  and  _375
REMARK  154  A    between atoms: _375  and  _376
REMARK  155  A    between atoms: _375  and  _378
REMARK  156  A    between atoms: _378  and  _379
REMARK  157  A    between atoms: _382  and  _384
REMARK  158  A    between atoms: _384  and  _385
REMARK  159  A    between atoms: _388  and  _390
REMARK  160  A    between atoms: _390  and  _391
REMARK  161  A    between atoms: _390  and  _393
REMARK  162  A    between atoms: _393  and  _394
REMARK  163  A    between atoms: _397  and  _399
REMARK  164  A    between atoms: _399  and  _400
REMARK  165  A    between atoms: _399  and  _402
REMARK  166  A    between atoms: _402  and  _403
REMARK  167  A    between atoms: _406  and  _408
REMARK  168  A    between atoms: _408  and  _409
REMARK  169  A    between atoms: _411  and  _413
REMARK  170  A    between atoms: _413  and  _414
REMARK  171  A    between atoms: _413  and  _416
REMARK  172  A    between atoms: _416  and  _417
REMARK  173  A    between atoms: _420  and  _422
REMARK  174  A    between atoms: _422  and  _423
REMARK  175  A    between atoms: _422  and  _425
REMARK  176  A    between atoms: _425  and  _426
REMARK  177  A    between atoms: _429  and  _431
REMARK  178  A    between atoms: _431  and  _432
REMARK  179  A    between atoms: _431  and  _434
REMARK  180  A    between atoms: _434  and  _435
REMARK  181  A    between atoms: _438  and  _440
REMARK  182  A    between atoms: _440  and  _441
REMARK  183  A    between atoms: _440  and  _443
REMARK  184  A    between atoms: _443  and  _444
REMARK  185  A    between atoms: _447  and  _449
REMARK  186  A    between atoms: _449  and  _450
REMARK  187  A    between atoms: _449  and  _452
REMARK  188  A    between atoms: _452  and  _453
REMARK  189  A    between atoms: _456  and  _458
REMARK  190  A    between atoms: _458  and  _459
REMARK  191  A    between atoms: _458  and  _461
REMARK  192  A    between atoms: _461  and  _462
REMARK  193  A    between atoms: _464  and  _466
REMARK  194  A    between atoms: _466  and  _467
REMARK  195  A    between atoms: _466  and  _469
REMARK  196  A    between atoms: _469  and  _470
REMARK  197  A    between atoms: _475  and  _477
REMARK  198  A    between atoms: _477  and  _478
REMARK  199  A    between atoms: _477  and  _480
REMARK  200  A    between atoms: _480  and  _481
REMARK  201  A    between atoms: _483  and  _485
REMARK  202  A    between atoms: _485  and  _486
REMARK  203  A    between atoms: _485  and  _488
REMARK  204  A    between atoms: _488  and  _489
REMARK  205  A    between atoms: _492  and  _494
REMARK  206  A    between atoms: _494  and  _495
REMARK  207  A    between atoms: _494  and  _497
REMARK  208  A    between atoms: _497  and  _498
REMARK  209  A    between atoms: _504  and  _506
REMARK  210  A    between atoms: _506  and  _507
REMARK  211  A    between atoms: _506  and  _509
REMARK  212  A    between atoms: _509  and  _510
REMARK  213  A    between atoms: _512  and  _514
REMARK  214  A    between atoms: _514  and  _515
REMARK  215  A    between atoms: _514  and  _517
REMARK  216  A    between atoms: _517  and  _518
REMARK  217  A    between atoms: _521  and  _523
REMARK  218  A    between atoms: _523  and  _524
REMARK  219  A    between atoms: _523  and  _526
REMARK  220  A    between atoms: _526  and  _527
REMARK  221  A    between atoms: _533  and  _535
REMARK  222  A    between atoms: _535  and  _536
REMARK  223  A    between atoms: _538  and  _540
REMARK  224  A    between atoms: _540  and  _541
REMARK  225  A    between atoms: _540  and  _543
REMARK  226  A    between atoms: _543  and  _544
REMARK  227  A    between atoms: _547  and  _549
REMARK  228  A    between atoms: _549  and  _550
REMARK  229  A    between atoms: _552  and  _554
REMARK  230  A    between atoms: _554  and  _555
REMARK  231  A    between atoms: _554  and  _557
REMARK  232  A    between atoms: _557  and  _558
REMARK  233  A    between atoms: _563  and  _564
REMARK  234  A    between atoms: _566  and  _568
REMARK  235  A    between atoms: _568  and  _569
REMARK  236  A    between atoms: _568  and  _571
REMARK  237  A    between atoms: _571  and  _572
REMARK  238  A    between atoms: _575  and  _577
REMARK  239  A    between atoms: _577  and  _578
REMARK  240  A    between atoms: _577  and  _580
REMARK  241  A    between atoms: _580  and  _581
REMARK  242  A    between atoms: _584  and  _586
REMARK  243  A    between atoms: _586  and  _587
REMARK  244  A    between atoms: _586  and  _589
REMARK  245  A    between atoms: _592  and  _594
REMARK  246  A    between atoms: _594  and  _595
REMARK  247  A    between atoms: _594  and  _597
REMARK  248  A    between atoms: _597  and  _598
REMARK  249  A    between atoms: _598  and  _599
REMARK  250  A    between atoms: _605  and  _606
REMARK  251  A    between atoms: _611  and  _613
REMARK  252  A    between atoms: _613  and  _614
REMARK  253  A    between atoms: _613  and  _616
REMARK  254  A    between atoms: _616  and  _617
REMARK  255  A    between atoms: _617  and  _618
REMARK                            x       y       z     vdW  Elec       q    Type
REMARK                         _______ _______ _______ _____ _____    ______ ____
ROOT
ATOM      1  CA  TYR A   2      22.625  10.388  34.667  0.00  0.00    +0.153 C 
ENDROOT
BRANCH   1   3
ATOM      2  C   GLY A   1      20.695   9.575  33.413  0.00  0.00    +0.240 C 
ATOM      3  N   TYR A   2      21.253   9.895  34.583  0.00  0.00    -0.297 N 
ATOM      4  H   TYR A   2      20.697   9.791  35.456  0.00  0.00    +0.150 HD
ATOM      5  O   GLY A   1      21.290   9.655  32.330  0.00  0.00    -0.274 OA
BRANCH   2   6
ATOM      6  CA  GLY A   1      19.263   9.054  33.467  0.00  0.00    +0.169 C 
BRANCH   6   7
ATOM      7  N   GLY A   1      18.726   8.825  34.805  0.00  0.00    -0.236 NA
ATOM      8  H   GLY A   1      18.802   7.876  35.224  0.00  0.00    +0.142 HD
ENDBRANCH   6   7
ENDBRANCH   2   6
ENDBRANCH   1   3
BRANCH   1   9
ATOM      9  C   TYR A   2      23.659   9.280  34.773  0.00  0.00    +0.241 C 
ATOM     10  O   TYR A   2      23.441   8.284  35.448  0.00  0.00    -0.273 OA
ATOM     11  N   THR A   3      24.813   9.485  34.157  0.00  0.00    -0.296 N 
ATOM     12  H   THR A   3      24.962  10.369  33.630  0.00  0.00    +0.150 HD
BRANCH  11  13
ATOM     13  CA  THR A   3      25.876   8.491  34.207  0.00  0.00    +0.164 C 
BRANCH  13  14
ATOM     14  C   THR A   3      27.205   9.219  34.261  0.00  0.00    +0.229 C 
ATOM     15  O   THR A   3      27.289  10.423  34.007  0.00  0.00    -0.286 OA
ENDBRANCH  13  14
BRANCH  13  16
ATOM     16  CB  THR A   3      25.884   7.602  32.942  0.00  0.00    +0.136 C 
ATOM     17  CG2 THR A   3      24.524   6.938  32.767  0.00  0.00    +0.034 C 
BRANCH  16  18
ATOM     18  OG1 THR A   3      26.196   8.391  31.784  0.00  0.00    -0.382 OA
ATOM     19  HG1 THR A   3      25.515   9.102  31.677  0.00  0.00    +0.210 HD
ENDBRANCH  16  18
ENDBRANCH  13  16
ENDBRANCH  11  13
ENDBRANCH   1   9
BRANCH   1  20
ATOM     20  CB  TYR A   2      22.768  11.383  35.815  0.00  0.00    +0.055 C 
BRANCH  20  21
ATOM     21  CG  TYR A   2      22.212  12.739  35.488  0.00  0.00    -0.020 A 
ATOM     22  CD2 TYR A   2      23.046  13.858  35.475  0.00  0.00    -0.001 A 
ATOM     23  CE2 TYR A   2      22.557  15.120  35.211  0.00  0.00    +0.036 A 
ATOM     24  CZ  TYR A   2      21.207  15.278  34.950  0.00  0.00    +0.134 A 
ATOM     25  CE1 TYR A   2      20.351  14.177  34.972  0.00  0.00    +0.036 A 
ATOM     26  CD1 TYR A   2      20.856  12.923  35.260  0.00  0.00    -0.001 A 
BRANCH  24  27
ATOM     27  OH  TYR A   2      20.727  16.532  34.644  0.00  0.00    -0.506 OA
ATOM     28  HH  TYR A   2      19.751  16.481  34.485  0.00  0.00    +0.292 HD
ENDBRANCH  24  27
ENDBRANCH  20  21
ENDBRANCH   1  20
TORSDOF 11
REMARK  Name = ../refined-set-2016/2web/2web_pocket.pdb
REMARK  255 active torsions:
REMARK  status: ('A' for Active; 'I' for Inactive)
REMARK    1  A    between atoms: _1  and  _3
REMARK    2  A    between atoms: _3  and  _4
REMARK    3  A    between atoms: _3  and  _6
REMARK    4  A    between atoms: _6  and  _7
REMARK    5  A    between atoms: _10  and  _12
REMARK    6  A    between atoms: _12  and  _13
REMARK    7  A    between atoms: _12  and  _15
REMARK    8  A    between atoms: _15  and  _16
REMARK    9  A    between atoms: _16  and  _17
REMARK   10  A    between atoms: _20  and  _22
REMARK   11  A    between atoms: _22  and  _23
REMARK   12  A    between atoms: _22  and  _25
REMARK   13  A    between atoms: _25  and  _26
REMARK   14  A    between atoms: _26  and  _27
REMARK   15  A    between atoms: _30  and  _32
REMARK   16  A    between atoms: _32  and  _33
REMARK   17  A    between atoms: _32  and  _35
REMARK   18  A    between atoms: _35  and  _36
REMARK   19  A    between atoms: _41  and  _42
REMARK   20  A    between atoms: _44  and  _46
REMARK   21  A    between atoms: _46  and  _47
REMARK   22  A    between atoms: _46  and  _49
REMARK   23  A    between atoms: _49  and  _50
REMARK   24  A    between atoms: _55  and  _57
REMARK   25  A    between atoms: _57  and  _58
REMARK   26  A    between atoms: _57  and  _60
REMARK   27  A    between atoms: _60  and  _61
REMARK   28  A    between atoms: _67  and  _69
REMARK   29  A    between atoms: _69  and  _70
REMARK   30  A    between atoms: _69  and  _72
REMARK   31  A    between atoms: _72  and  _73
REMARK   32  A    between atoms: _76  and  _78
REMARK   33  A    between atoms: _78  and  _79
REMARK   34  A    between atoms: _78  and  _81
REMARK   35  A    between atoms: _81  and  _82
REMARK   36  A    between atoms: _85  and  _87
REMARK   37  A    between atoms: _87  and  _88
REMARK   38  A    between atoms: _90  and  _92
REMARK   39  A    between atoms: _92  and  _93
REMARK   40  A    between atoms: _92  and  _95
REMARK   41  A    between atoms: _95  and  _96
REMARK   42  A    between atoms: _98  and  _100
REMARK   43  A    between atoms: _100  and  _101
REMARK   44  A    between atoms: _104  and  _106
REMARK   45  A    between atoms: _106  and  _107
REMARK   46  A    between atoms: _106  and  _109
REMARK   47  A    between atoms: _109  and  _110
REMARK   48  A    between atoms: _113  and  _115
REMARK   49  A    between atoms: _115  and  _116
REMARK   50  A    between atoms: _115  and  _118
REMARK   51  A    between atoms: _118  and  _119
REMARK   52  A    between atoms: _129  and  _131
REMARK   53  A    between atoms: _131  and  _132
REMARK   54  A    between atoms: _131  and  _134
REMARK   55  A    between atoms: _134  and  _135
REMARK   56  A    between atoms: _138  and  _140
REMARK   57  A    between atoms: _140  and  _141
REMARK   58  A    between atoms: _140  and  _143
REMARK   59  A    between atoms: _143  and  _144
REMARK   60  A    between atoms: _146  and  _148
REMARK   61  A    between atoms: _148  and  _149
REMARK   62  A    between atoms: _148  and  _151
REMARK   63  A    between atoms: _151  and  _152
REMARK   64  A    between atoms: _157  and  _158
REMARK   65  A    between atoms: _160  and  _162
REMARK   66  A    between atoms: _162  and  _163
REMARK   67  A    between atoms: _165  and  _167
REMARK   68  A    between atoms: _167  and  _168
REMARK   69  A    between atoms: _167  and  _170
REMARK   70  A    between atoms: _170  and  _171
REMARK   71  A    between atoms: _174  and  _176
REMARK   72  A    between atoms: _176  and  _177
REMARK   73  A    between atoms: _179  and  _181
REMARK   74  A    between atoms: _181  and  _182
REMARK   75  A    between atoms: _181  and  _184
REMARK   76  A    between atoms: _184  and  _185
REMARK   77  A    between atoms: _187  and  _189
REMARK   78  A    between atoms: _189  and  _190
REMARK   79  A    between atoms: _189  and  _192
REMARK   80  A    between atoms: _192  and  _193
REMARK   81  A    between atoms: _195  and  _197
REMARK   82  A    between atoms: _197  and  _198
REMARK   83  A    between atoms: _197  and  _200
REMARK   84  A    between atoms: _200  and  _201
REMARK   85  A    between atoms: _203  and  _205
REMARK   86  A    between atoms: _205  and  _206
REMARK   87  A    between atoms: _209  and  _211
REMARK   88  A    between atoms: _211  and  _212
REMARK   89  A    between atoms: _211  and  _214
REMARK   90  A    between atoms: _214  and  _215
REMARK   91  A    between atoms: _215  and  _216
REMARK   92  A    between atoms: _221  and  _223
REMARK   93  A    between atoms: _223  and  _224
REMARK   94  A    between atoms: _223  and  _226
REMARK   95  A    between atoms: _226  and  _227
REMARK   96  A    between atoms: _233  and  _235
REMARK   97  A    between atoms: _235  and  _236
REMARK   98  A    between atoms: _235  and  _238
REMARK   99  A    between atoms: _238  and  _239
REMARK  100  A    between atoms: _239  and  _240
REMARK  101  A    between atoms: _245  and  _247
REMARK  102  A    between atoms: _247  and  _248
REMARK  103  A    between atoms: _247  and  _250
REMARK  104  A    between atoms: _250  and  _251
REMARK  105  A    between atoms: _251  and  _252
REMARK  106  A    between atoms: _257  and  _259
REMARK  107  A    between atoms: _259  and  _260
REMARK  108  A    between atoms: _259  and  _262
REMARK  109  A    between atoms: _262  and  _263
REMARK  110  A    between atoms: _266  and  _268
REMARK  111  A    between atoms: _268  and  _269
REMARK  112  A    between atoms: _268  and  _271
REMARK  113  A    between atoms: _271  and  _272
REMARK  114  A    between atoms: _275  and  _277
REMARK  115  A    between atoms: _277  and  _278
REMARK  116  A    between atoms: _277  and  _280
REMARK  117  A    between atoms: _280  and  _281
REMARK  118  A    between atoms: _286  and  _288
REMARK  119  A    between atoms: _288  and  _289
REMARK  120  A    between atoms: _288  and  _291
REMARK  121  A    between atoms: _291  and  _292
REMARK  122  A    between atoms: _297  and  _299
REMARK  123  A    between atoms: _299  and  _300
REMARK  124  A    between atoms: _302  and  _304
REMARK  125  A    between atoms: _304  and  _305
REMARK  126  A    between atoms: _304  and  _307
REMARK  127  A    between atoms: _307  and  _308
REMARK  128  A    between atoms: _311  and  _313
REMARK  129  A    between atoms: _313  and  _314
REMARK  130  A    between atoms: _316  and  _318
REMARK  131  A    between atoms: _318  and  _319
REMARK  132  A    between atoms: _318  and  _321
REMARK  133  A    between atoms: _321  and  _322
REMARK  134  A    between atoms: _325  and  _327
REMARK  135  A    between atoms: _327  and  _328
REMARK  136  A    between atoms: _331  and  _333
REMARK  137  A    between atoms: _333  and  _334
REMARK  138  A    between atoms: _333  and  _336
REMARK  139  A    between atoms: _336  and  _337
REMARK  140  A    between atoms: _340  and  _342
REMARK  141  A    between atoms: _342  and  _343
REMARK  142  A    between atoms: _342  and  _345
REMARK  143  A    between atoms: _345  and  _346
REMARK  144  A    between atoms: _349  and  _351
REMARK  145  A    between atoms: _351  and  _352
REMARK  146  A    between atoms: _351  and  _354
REMARK  147  A    between atoms: _354  and  _355
REMARK  148  A    between atoms: _355  and  _356
REMARK  149  A    between atoms: _361  and  _363
REMARK  150  A    between atoms: _363  and  _364
REMARK  151  A    between atoms: _363  and  _366
REMARK  152  A    between atoms: _366  and  _367
REMARK  153  A    between atoms: _373  and  _375
REMARK  154  A    between atoms: _375  and  _376
REMARK  155  A    between atoms: _375  and  _378
REMARK  156  A    between atoms: _378  and  _379
REMARK  157  A    between atoms: _382  and  _384
REMARK  158  A    between atoms: _384  and  _385
REMARK  159  A    between atoms: _388  and  _390
REMARK  160  A    between atoms: _390  and  _391
REMARK  161  A    between atoms: _390  and  _393
REMARK  162  A    between atoms: _393  and  _394
REMARK  163  A    between atoms: _397  and  _399
REMARK  164  A    between atoms: _399  and  _400
REMARK  165  A    between atoms: _399  and  _402
REMARK  166  A    between atoms: _402  and  _403
REMARK  167  A    between atoms: _406  and  _408
REMARK  168  A    between atoms: _408  and  _409
REMARK  169  A    between atoms: _411  and  _413
REMARK  170  A    between atoms: _413  and  _414
REMARK  171  A    between atoms: _413  and  _416
REMARK  172  A    between atoms: _416  and  _417
REMARK  173  A    between atoms: _420  and  _422
REMARK  174  A    between atoms: _422  and  _423
REMARK  175  A    between atoms: _422  and  _425
REMARK  176  A    between atoms: _425  and  _426
REMARK  177  A    between atoms: _429  and  _431
REMARK  178  A    between atoms: _431  and  _432
REMARK  179  A    between atoms: _431  and  _434
REMARK  180  A    between atoms: _434  and  _435
REMARK  181  A    between atoms: _438  and  _440
REMARK  182  A    between atoms: _440  and  _441
REMARK  183  A    between atoms: _440  and  _443
REMARK  184  A    between atoms: _443  and  _444
REMARK  185  A    between atoms: _447  and  _449
REMARK  186  A    between atoms: _449  and  _450
REMARK  187  A    between atoms: _449  and  _452
REMARK  188  A    between atoms: _452  and  _453
REMARK  189  A    between atoms: _456  and  _458
REMARK  190  A    between atoms: _458  and  _459
REMARK  191  A    between atoms: _458  and  _461
REMARK  192  A    between atoms: _461  and  _462
REMARK  193  A    between atoms: _464  and  _466
REMARK  194  A    between atoms: _466  and  _467
REMARK  195  A    between atoms: _466  and  _469
REMARK  196  A    between atoms: _469  and  _470
REMARK  197  A    between atoms: _475  and  _477
REMARK  198  A    between atoms: _477  and  _478
REMARK  199  A    between atoms: _477  and  _480
REMARK  200  A    between atoms: _480  and  _481
REMARK  201  A    between atoms: _483  and  _485
REMARK  202  A    between atoms: _485  and  _486
REMARK  203  A    between atoms: _485  and  _488
REMARK  204  A    between atoms: _488  and  _489
REMARK  205  A    between atoms: _492  and  _494
REMARK  206  A    between atoms: _494  and  _495
REMARK  207  A    between atoms: _494  and  _497
REMARK  208  A    between atoms: _497  and  _498
REMARK  209  A    between atoms: _504  and  _506
REMARK  210  A    between atoms: _506  and  _507
REMARK  211  A    between atoms: _506  and  _509
REMARK  212  A    between atoms: _509  and  _510
REMARK  213  A    between atoms: _512  and  _514
REMARK  214  A    between atoms: _514  and  _515
REMARK  215  A    between atoms: _514  and  _517
REMARK  216  A    between atoms: _517  and  _518
REMARK  217  A    between atoms: _521  and  _523
REMARK  218  A    between atoms: _523  and  _524
REMARK  219  A    between atoms: _523  and  _526
REMARK  220  A    between atoms: _526  and  _527
REMARK  221  A    between atoms: _533  and  _535
REMARK  222  A    between atoms: _535  and  _536
REMARK  223  A    between atoms: _538  and  _540
REMARK  224  A    between atoms: _540  and  _541
REMARK  225  A    between atoms: _540  and  _543
REMARK  226  A    between atoms: _543  and  _544
REMARK  227  A    between atoms: _547  and  _549
REMARK  228  A    between atoms: _549  and  _550
REMARK  229  A    between atoms: _552  and  _554
REMARK  230  A    between atoms: _554  and  _555
REMARK  231  A    between atoms: _554  and  _557
REMARK  232  A    between atoms: _557  and  _558
REMARK  233  A    between atoms: _563  and  _564
REMARK  234  A    between atoms: _566  and  _568
REMARK  235  A    between atoms: _568  and  _569
REMARK  236  A    between atoms: _568  and  _571
REMARK  237  A    between atoms: _571  and  _572
REMARK  238  A    between atoms: _575  and  _577
REMARK  239  A    between atoms: _577  and  _578
REMARK  240  A    between atoms: _577  and  _580
REMARK  241  A    between atoms: _580  and  _581
REMARK  242  A    between atoms: _584  and  _586
REMARK  243  A    between atoms: _586  and  _587
REMARK  244  A    between atoms: _586  and  _589
REMARK  245  A    between atoms: _592  and  _594
REMARK  246  A    between atoms: _594  and  _595
REMARK  247  A    between atoms: _594  and  _597
REMARK  248  A    between atoms: _597  and  _598
REMARK  249  A    between atoms: _598  and  _599
REMARK  250  A    between atoms: _605  and  _606
REMARK  251  A    between atoms: _611  and  _613
REMARK  252  A    between atoms: _613  and  _614
REMARK  253  A    between atoms: _613  and  _616
REMARK  254  A    between atoms: _616  and  _617
REMARK  255  A    between atoms: _617  and  _618
REMARK                            x       y       z     vdW  Elec       q    Type
REMARK                         _______ _______ _______ _____ _____    ______ ____
ROOT
ATOM      1  CA  GLN A   3      26.390  13.171  31.659  0.00  0.00    +0.149 C 
ENDROOT
BRANCH   1   2
ATOM      2  C   GLN A   3      24.942  13.017  32.115  0.00  0.00    +0.244 C 
ATOM      3  O   GLN A   3      24.676  12.135  32.927  0.00  0.00    -0.273 OA
ATOM      4  N   PRO A   4      23.972  13.734  31.544  0.00  0.00    -0.272 N 
ATOM      5  CD  PRO A   4      22.551  13.437  31.815  0.00  0.00    +0.094 C 
ATOM      6  CG  PRO A   4      21.815  14.453  30.966  0.00  0.00    +0.024 C 
ATOM      7  CB  PRO A   4      22.746  14.757  29.837  0.00  0.00    +0.031 C 
ATOM      8  CA  PRO A   4      24.142  14.721  30.475  0.00  0.00    +0.152 C 
BRANCH   8   9
ATOM      9  C   PRO A   4      24.563  16.134  30.893  0.00  0.00    +0.241 C 
ATOM     10  N   GLN A   5      24.591  16.393  32.195  0.00  0.00    -0.298 N 
ATOM     11  H   GLN A   5      24.326  15.650  32.873  0.00  0.00    +0.150 HD
ATOM     12  O   PRO A   4      24.867  16.979  30.047  0.00  0.00    -0.273 OA
BRANCH  10  13
ATOM     13  CA  GLN A   5      24.987  17.703  32.684  0.00  0.00    +0.137 C 
BRANCH  13  14
ATOM     14  C   GLN A   5      26.002  17.463  33.803  0.00  0.00    +0.227 C 
ATOM     15  O   GLN A   5      25.738  16.721  34.752  0.00  0.00    -0.286 OA
ENDBRANCH  13  14
BRANCH  13  16
ATOM     16  CB  GLN A   5      23.768  18.452  33.212  0.00  0.00    +0.037 C 
BRANCH  16  17
ATOM     17  CG  GLN A   5      22.714  18.692  32.112  0.00  0.00    +0.087 C 
BRANCH  17  18
ATOM     18  CD  GLN A   5      21.530  19.574  32.557  0.00  0.00    +0.219 C 
ATOM     19  NE2 GLN A   5      20.833  19.158  33.617  0.00  0.00    -0.329 N 
ATOM     20 HE21 GLN A   5      21.149  18.324  34.152  0.00  0.00    +0.145 HD
ATOM     21 HE22 GLN A   5      19.974  19.668  33.907  0.00  0.00    +0.145 HD
ATOM     22  OE1 GLN A   5      21.194  20.563  31.886  0.00  0.00    -0.275 OA
ENDBRANCH  17  18
ENDBRANCH  16  17
ENDBRANCH  13  16
ENDBRANCH  10  13
ENDBRANCH   8   9
ENDBRANCH   1   2
BRANCH   1  25
ATOM     23  C   VAL A   2      28.020  13.860  33.397  0.00  0.00    +0.241 C 
ATOM     24  O   VAL A   2      28.238  14.960  32.905  0.00  0.00    -0.273 OA
ATOM     25  N   GLN A   3      27.232  12.946  32.838  0.00  0.00    -0.297 N 
ATOM     26  H   GLN A   3      27.212  12.000  33.270  0.00  0.00    +0.150 HD
BRANCH  23  27
ATOM     27  CA  VAL A   2      28.806  13.396  34.627  0.00  0.00    +0.148 C 
BRANCH  27  29
ATOM     28  C   THR A   1      30.997  13.264  33.607  0.00  0.00    +0.241 C 
ATOM     29  N   VAL A   2      30.229  13.733  34.587  0.00  0.00    -0.297 N 
ATOM     30  H   VAL A   2      30.640  14.339  35.325  0.00  0.00    +0.150 HD
ATOM     31  O   THR A   1      30.552  12.511  32.734  0.00  0.00    -0.274 OA
BRANCH  28  32
ATOM     32  CA  THR A   1      32.500  13.584  33.615  0.00  0.00    +0.172 C 
BRANCH  32  33
ATOM     33  CB  THR A   1      33.264  12.233  33.588  0.00  0.00    +0.135 C 
ATOM     34  CG2 THR A   1      34.799  12.453  33.642  0.00  0.00    +0.034 C 
BRANCH  33  35
ATOM     35  OG1 THR A   1      32.841  11.408  34.674  0.00  0.00    -0.383 OA
ATOM     36  HG1 THR A   1      33.027  11.870  35.530  0.00  0.00    +0.210 HD
ENDBRANCH  33  35
ENDBRANCH  32  33
BRANCH  32  37
ATOM     37  N   THR A   1      33.002  14.471  34.667  0.00  0.00    -0.236 NA
ATOM     38  H   THR A   1      33.371  14.048  35.542  0.00  0.00    +0.142 HD
ENDBRANCH  32  37
ENDBRANCH  28  32
ENDBRANCH  27  29
BRANCH  27  39
ATOM     39  CB  VAL A   2      28.148  13.875  35.906  0.00  0.00    +0.027 C 
ATOM     40  CG2 VAL A   2      28.792  13.153  37.111  0.00  0.00    +0.002 C 
ATOM     41  CG1 VAL A   2      26.650  13.583  35.866  0.00  0.00    +0.002 C 
ENDBRANCH  27  39
ENDBRANCH  23  27
ENDBRANCH   1  25
BRANCH   1  42
ATOM     42  CB  GLN A   3      26.626  12.009  30.694  0.00  0.00    +0.039 C 
BRANCH  42  43
ATOM     43  CG  GLN A   3      28.022  11.868  30.161  0.00  0.00    +0.087 C 
BRANCH  43  44
ATOM     44  CD  GLN A   3      28.358  12.947  29.162  0.00  0.00    +0.219 C 
ATOM     45  OE1 GLN A   3      27.840  14.072  29.239  0.00  0.00    -0.275 OA
ATOM     46  NE2 GLN A   3      29.102  12.561  28.120  0.00  0.00    -0.329 N 
ATOM     47 HE21 GLN A   3      29.515  11.607  28.101  0.00  0.00    +0.145 HD
ATOM     48 HE22 GLN A   3      29.267  13.215  27.328  0.00  0.00    +0.145 HD
ENDBRANCH  43  44
ENDBRANCH  42  43
ENDBRANCH   1  42
TORSDOF 18
REMARK  Name = ../refined-set-2016/2web/2web_pocket.pdb
REMARK  255 active torsions:
REMARK  status: ('A' for Active; 'I' for Inactive)
REMARK    1  A    between atoms: _1  and  _3
REMARK    2  A    between atoms: _3  and  _4
REMARK    3  A    between atoms: _3  and  _6
REMARK    4  A    between atoms: _6  and  _7
REMARK    5  A    between atoms: _10  and  _12
REMARK    6  A    between atoms: _12  and  _13
REMARK    7  A    between atoms: _12  and  _15
REMARK    8  A    between atoms: _15  and  _16
REMARK    9  A    between atoms: _16  and  _17
REMARK   10  A    between atoms: _20  and  _22
REMARK   11  A    between atoms: _22  and  _23
REMARK   12  A    between atoms: _22  and  _25
REMARK   13  A    between atoms: _25  and  _26
REMARK   14  A    between atoms: _26  and  _27
REMARK   15  A    between atoms: _30  and  _32
REMARK   16  A    between atoms: _32  and  _33
REMARK   17  A    between atoms: _32  and  _35
REMARK   18  A    between atoms: _35  and  _36
REMARK   19  A    between atoms: _41  and  _42
REMARK   20  A    between atoms: _44  and  _46
REMARK   21  A    between atoms: _46  and  _47
REMARK   22  A    between atoms: _46  and  _49
REMARK   23  A    between atoms: _49  and  _50
REMARK   24  A    between atoms: _55  and  _57
REMARK   25  A    between atoms: _57  and  _58
REMARK   26  A    between atoms: _57  and  _60
REMARK   27  A    between atoms: _60  and  _61
REMARK   28  A    between atoms: _67  and  _69
REMARK   29  A    between atoms: _69  and  _70
REMARK   30  A    between atoms: _69  and  _72
REMARK   31  A    between atoms: _72  and  _73
REMARK   32  A    between atoms: _76  and  _78
REMARK   33  A    between atoms: _78  and  _79
REMARK   34  A    between atoms: _78  and  _81
REMARK   35  A    between atoms: _81  and  _82
REMARK   36  A    between atoms: _85  and  _87
REMARK   37  A    between atoms: _87  and  _88
REMARK   38  A    between atoms: _90  and  _92
REMARK   39  A    between atoms: _92  and  _93
REMARK   40  A    between atoms: _92  and  _95
REMARK   41  A    between atoms: _95  and  _96
REMARK   42  A    between atoms: _98  and  _100
REMARK   43  A    between atoms: _100  and  _101
REMARK   44  A    between atoms: _104  and  _106
REMARK   45  A    between atoms: _106  and  _107
REMARK   46  A    between atoms: _106  and  _109
REMARK   47  A    between atoms: _109  and  _110
REMARK   48  A    between atoms: _113  and  _115
REMARK   49  A    between atoms: _115  and  _116
REMARK   50  A    between atoms: _115  and  _118
REMARK   51  A    between atoms: _118  and  _119
REMARK   52  A    between atoms: _129  and  _131
REMARK   53  A    between atoms: _131  and  _132
REMARK   54  A    between atoms: _131  and  _134
REMARK   55  A    between atoms: _134  and  _135
REMARK   56  A    between atoms: _138  and  _140
REMARK   57  A    between atoms: _140  and  _141
REMARK   58  A    between atoms: _140  and  _143
REMARK   59  A    between atoms: _143  and  _144
REMARK   60  A    between atoms: _146  and  _148
REMARK   61  A    between atoms: _148  and  _149
REMARK   62  A    between atoms: _148  and  _151
REMARK   63  A    between atoms: _151  and  _152
REMARK   64  A    between atoms: _157  and  _158
REMARK   65  A    between atoms: _160  and  _162
REMARK   66  A    between atoms: _162  and  _163
REMARK   67  A    between atoms: _165  and  _167
REMARK   68  A    between atoms: _167  and  _168
REMARK   69  A    between atoms: _167  and  _170
REMARK   70  A    between atoms: _170  and  _171
REMARK   71  A    between atoms: _174  and  _176
REMARK   72  A    between atoms: _176  and  _177
REMARK   73  A    between atoms: _179  and  _181
REMARK   74  A    between atoms: _181  and  _182
REMARK   75  A    between atoms: _181  and  _184
REMARK   76  A    between atoms: _184  and  _185
REMARK   77  A    between atoms: _187  and  _189
REMARK   78  A    between atoms: _189  and  _190
REMARK   79  A    between atoms: _189  and  _192
REMARK   80  A    between atoms: _192  and  _193
REMARK   81  A    between atoms: _195  and  _197
REMARK   82  A    between atoms: _197  and  _198
REMARK   83  A    between atoms: _197  and  _200
REMARK   84  A    between atoms: _200  and  _201
REMARK   85  A    between atoms: _203  and  _205
REMARK   86  A    between atoms: _205  and  _206
REMARK   87  A    between atoms: _209  and  _211
REMARK   88  A    between atoms: _211  and  _212
REMARK   89  A    between atoms: _211  and  _214
REMARK   90  A    between atoms: _214  and  _215
REMARK   91  A    between atoms: _215  and  _216
REMARK   92  A    between atoms: _221  and  _223
REMARK   93  A    between atoms: _223  and  _224
REMARK   94  A    between atoms: _223  and  _226
REMARK   95  A    between atoms: _226  and  _227
REMARK   96  A    between atoms: _233  and  _235
REMARK   97  A    between atoms: _235  and  _236
REMARK   98  A    between atoms: _235  and  _238
REMARK   99  A    between atoms: _238  and  _239
REMARK  100  A    between atoms: _239  and  _240
REMARK  101  A    between atoms: _245  and  _247
REMARK  102  A    between atoms: _247  and  _248
REMARK  103  A    between atoms: _247  and  _250
REMARK  104  A    between atoms: _250  and  _251
REMARK  105  A    between atoms: _251  and  _252
REMARK  106  A    between atoms: _257  and  _259
REMARK  107  A    between atoms: _259  and  _260
REMARK  108  A    between atoms: _259  and  _262
REMARK  109  A    between atoms: _262  and  _263
REMARK  110  A    between atoms: _266  and  _268
REMARK  111  A    between atoms: _268  and  _269
REMARK  112  A    between atoms: _268  and  _271
REMARK  113  A    between atoms: _271  and  _272
REMARK  114  A    between atoms: _275  and  _277
REMARK  115  A    between atoms: _277  and  _278
REMARK  116  A    between atoms: _277  and  _280
REMARK  117  A    between atoms: _280  and  _281
REMARK  118  A    between atoms: _286  and  _288
REMARK  119  A    between atoms: _288  and  _289
REMARK  120  A    between atoms: _288  and  _291
REMARK  121  A    between atoms: _291  and  _292
REMARK  122  A    between atoms: _297  and  _299
REMARK  123  A    between atoms: _299  and  _300
REMARK  124  A    between atoms: _302  and  _304
REMARK  125  A    between atoms: _304  and  _305
REMARK  126  A    between atoms: _304  and  _307
REMARK  127  A    between atoms: _307  and  _308
REMARK  128  A    between atoms: _311  and  _313
REMARK  129  A    between atoms: _313  and  _314
REMARK  130  A    between atoms: _316  and  _318
REMARK  131  A    between atoms: _318  and  _319
REMARK  132  A    between atoms: _318  and  _321
REMARK  133  A    between atoms: _321  and  _322
REMARK  134  A    between atoms: _325  and  _327
REMARK  135  A    between atoms: _327  and  _328
REMARK  136  A    between atoms: _331  and  _333
REMARK  137  A    between atoms: _333  and  _334
REMARK  138  A    between atoms: _333  and  _336
REMARK  139  A    between atoms: _336  and  _337
REMARK  140  A    between atoms: _340  and  _342
REMARK  141  A    between atoms: _342  and  _343
REMARK  142  A    between atoms: _342  and  _345
REMARK  143  A    between atoms: _345  and  _346
REMARK  144  A    between atoms: _349  and  _351
REMARK  145  A    between atoms: _351  and  _352
REMARK  146  A    between atoms: _351  and  _354
REMARK  147  A    between atoms: _354  and  _355
REMARK  148  A    between atoms: _355  and  _356
REMARK  149  A    between atoms: _361  and  _363
REMARK  150  A    between atoms: _363  and  _364
REMARK  151  A    between atoms: _363  and  _366
REMARK  152  A    between atoms: _366  and  _367
REMARK  153  A    between atoms: _373  and  _375
REMARK  154  A    between atoms: _375  and  _376
REMARK  155  A    between atoms: _375  and  _378
REMARK  156  A    between atoms: _378  and  _379
REMARK  157  A    between atoms: _382  and  _384
REMARK  158  A    between atoms: _384  and  _385
REMARK  159  A    between atoms: _388  and  _390
REMARK  160  A    between atoms: _390  and  _391
REMARK  161  A    between atoms: _390  and  _393
REMARK  162  A    between atoms: _393  and  _394
REMARK  163  A    between atoms: _397  and  _399
REMARK  164  A    between atoms: _399  and  _400
REMARK  165  A    between atoms: _399  and  _402
REMARK  166  A    between atoms: _402  and  _403
REMARK  167  A    between atoms: _406  and  _408
REMARK  168  A    between atoms: _408  and  _409
REMARK  169  A    between atoms: _411  and  _413
REMARK  170  A    between atoms: _413  and  _414
REMARK  171  A    between atoms: _413  and  _416
REMARK  172  A    between atoms: _416  and  _417
REMARK  173  A    between atoms: _420  and  _422
REMARK  174  A    between atoms: _422  and  _423
REMARK  175  A    between atoms: _422  and  _425
REMARK  176  A    between atoms: _425  and  _426
REMARK  177  A    between atoms: _429  and  _431
REMARK  178  A    between atoms: _431  and  _432
REMARK  179  A    between atoms: _431  and  _434
REMARK  180  A    between atoms: _434  and  _435
REMARK  181  A    between atoms: _438  and  _440
REMARK  182  A    between atoms: _440  and  _441
REMARK  183  A    between atoms: _440  and  _443
REMARK  184  A    between atoms: _443  and  _444
REMARK  185  A    between atoms: _447  and  _449
REMARK  186  A    between atoms: _449  and  _450
REMARK  187  A    between atoms: _449  and  _452
REMARK  188  A    between atoms: _452  and  _453
REMARK  189  A    between atoms: _456  and  _458
REMARK  190  A    between atoms: _458  and  _459
REMARK  191  A    between atoms: _458  and  _461
REMARK  192  A    between atoms: _461  and  _462
REMARK  193  A    between atoms: _464  and  _466
REMARK  194  A    between atoms: _466  and  _467
REMARK  195  A    between atoms: _466  and  _469
REMARK  196  A    between atoms: _469  and  _470
REMARK  197  A    between atoms: _475  and  _477
REMARK  198  A    between atoms: _477  and  _478
REMARK  199  A    between atoms: _477  and  _480
REMARK  200  A    between atoms: _480  and  _481
REMARK  201  A    between atoms: _483  and  _485
REMARK  202  A    between atoms: _485  and  _486
REMARK  203  A    between atoms: _485  and  _488
REMARK  204  A    between atoms: _488  and  _489
REMARK  205  A    between atoms: _492  and  _494
REMARK  206  A    between atoms: _494  and  _495
REMARK  207  A    between atoms: _494  and  _497
REMARK  208  A    between atoms: _497  and  _498
REMARK  209  A    between atoms: _504  and  _506
REMARK  210  A    between atoms: _506  and  _507
REMARK  211  A    between atoms: _506  and  _509
REMARK  212  A    between atoms: _509  and  _510
REMARK  213  A    between atoms: _512  and  _514
REMARK  214  A    between atoms: _514  and  _515
REMARK  215  A    between atoms: _514  and  _517
REMARK  216  A    between atoms: _517  and  _518
REMARK  217  A    between atoms: _521  and  _523
REMARK  218  A    between atoms: _523  and  _524
REMARK  219  A    between atoms: _523  and  _526
REMARK  220  A    between atoms: _526  and  _527
REMARK  221  A    between atoms: _533  and  _535
REMARK  222  A    between atoms: _535  and  _536
REMARK  223  A    between atoms: _538  and  _540
REMARK  224  A    between atoms: _540  and  _541
REMARK  225  A    between atoms: _540  and  _543
REMARK  226  A    between atoms: _543  and  _544
REMARK  227  A    between atoms: _547  and  _549
REMARK  228  A    between atoms: _549  and  _550
REMARK  229  A    between atoms: _552  and  _554
REMARK  230  A    between atoms: _554  and  _555
REMARK  231  A    between atoms: _554  and  _557
REMARK  232  A    between atoms: _557  and  _558
REMARK  233  A    between atoms: _563  and  _564
REMARK  234  A    between atoms: _566  and  _568
REMARK  235  A    between atoms: _568  and  _569
REMARK  236  A    between atoms: _568  and  _571
REMARK  237  A    between atoms: _571  and  _572
REMARK  238  A    between atoms: _575  and  _577
REMARK  239  A    between atoms: _577  and  _578
REMARK  240  A    between atoms: _577  and  _580
REMARK  241  A    between atoms: _580  and  _581
REMARK  242  A    between atoms: _584  and  _586
REMARK  243  A    between atoms: _586  and  _587
REMARK  244  A    between atoms: _586  and  _589
REMARK  245  A    between atoms: _592  and  _594
REMARK  246  A    between atoms: _594  and  _595
REMARK  247  A    between atoms: _594  and  _597
REMARK  248  A    between atoms: _597  and  _598
REMARK  249  A    between atoms: _598  and  _599
REMARK  250  A    between atoms: _605  and  _606
REMARK  251  A    between atoms: _611  and  _613
REMARK  252  A    between atoms: _613  and  _614
REMARK  253  A    between atoms: _613  and  _616
REMARK  254  A    between atoms: _616  and  _617
REMARK  255  A    between atoms: _617  and  _618
REMARK                            x       y       z     vdW  Elec       q    Type
REMARK                         _______ _______ _______ _____ _____    ______ ____
ROOT
ATOM      1  O   HOH     1      13.930   6.153  23.336  0.00  0.00    +0.000 OA
ENDROOT
TORSDOF 0
REMARK  Name = ../refined-set-2016/2web/2web_pocket.pdb
REMARK  255 active torsions:
REMARK  status: ('A' for Active; 'I' for Inactive)
REMARK    1  A    between atoms: _1  and  _3
REMARK    2  A    between atoms: _3  and  _4
REMARK    3  A    between atoms: _3  and  _6
REMARK    4  A    between atoms: _6  and  _7
REMARK    5  A    between atoms: _10  and  _12
REMARK    6  A    between atoms: _12  and  _13
REMARK    7  A    between atoms: _12  and  _15
REMARK    8  A    between atoms: _15  and  _16
REMARK    9  A    between atoms: _16  and  _17
REMARK   10  A    between atoms: _20  and  _22
REMARK   11  A    between atoms: _22  and  _23
REMARK   12  A    between atoms: _22  and  _25
REMARK   13  A    between atoms: _25  and  _26
REMARK   14  A    between atoms: _26  and  _27
REMARK   15  A    between atoms: _30  and  _32
REMARK   16  A    between atoms: _32  and  _33
REMARK   17  A    between atoms: _32  and  _35
REMARK   18  A    between atoms: _35  and  _36
REMARK   19  A    between atoms: _41  and  _42
REMARK   20  A    between atoms: _44  and  _46
REMARK   21  A    between atoms: _46  and  _47
REMARK   22  A    between atoms: _46  and  _49
REMARK   23  A    between atoms: _49  and  _50
REMARK   24  A    between atoms: _55  and  _57
REMARK   25  A    between atoms: _57  and  _58
REMARK   26  A    between atoms: _57  and  _60
REMARK   27  A    between atoms: _60  and  _61
REMARK   28  A    between atoms: _67  and  _69
REMARK   29  A    between atoms: _69  and  _70
REMARK   30  A    between atoms: _69  and  _72
REMARK   31  A    between atoms: _72  and  _73
REMARK   32  A    between atoms: _76  and  _78
REMARK   33  A    between atoms: _78  and  _79
REMARK   34  A    between atoms: _78  and  _81
REMARK   35  A    between atoms: _81  and  _82
REMARK   36  A    between atoms: _85  and  _87
REMARK   37  A    between atoms: _87  and  _88
REMARK   38  A    between atoms: _90  and  _92
REMARK   39  A    between atoms: _92  and  _93
REMARK   40  A    between atoms: _92  and  _95
REMARK   41  A    between atoms: _95  and  _96
REMARK   42  A    between atoms: _98  and  _100
REMARK   43  A    between atoms: _100  and  _101
REMARK   44  A    between atoms: _104  and  _106
REMARK   45  A    between atoms: _106  and  _107
REMARK   46  A    between atoms: _106  and  _109
REMARK   47  A    between atoms: _109  and  _110
REMARK   48  A    between atoms: _113  and  _115
REMARK   49  A    between atoms: _115  and  _116
REMARK   50  A    between atoms: _115  and  _118
REMARK   51  A    between atoms: _118  and  _119
REMARK   52  A    between atoms: _129  and  _131
REMARK   53  A    between atoms: _131  and  _132
REMARK   54  A    between atoms: _131  and  _134
REMARK   55  A    between atoms: _134  and  _135
REMARK   56  A    between atoms: _138  and  _140
REMARK   57  A    between atoms: _140  and  _141
REMARK   58  A    between atoms: _140  and  _143
REMARK   59  A    between atoms: _143  and  _144
REMARK   60  A    between atoms: _146  and  _148
REMARK   61  A    between atoms: _148  and  _149
REMARK   62  A    between atoms: _148  and  _151
REMARK   63  A    between atoms: _151  and  _152
REMARK   64  A    between atoms: _157  and  _158
REMARK   65  A    between atoms: _160  and  _162
REMARK   66  A    between atoms: _162  and  _163
REMARK   67  A    between atoms: _165  and  _167
REMARK   68  A    between atoms: _167  and  _168
REMARK   69  A    between atoms: _167  and  _170
REMARK   70  A    between atoms: _170  and  _171
REMARK   71  A    between atoms: _174  and  _176
REMARK   72  A    between atoms: _176  and  _177
REMARK   73  A    between atoms: _179  and  _181
REMARK   74  A    between atoms: _181  and  _182
REMARK   75  A    between atoms: _181  and  _184
REMARK   76  A    between atoms: _184  and  _185
REMARK   77  A    between atoms: _187  and  _189
REMARK   78  A    between atoms: _189  and  _190
REMARK   79  A    between atoms: _189  and  _192
REMARK   80  A    between atoms: _192  and  _193
REMARK   81  A    between atoms: _195  and  _197
REMARK   82  A    between atoms: _197  and  _198
REMARK   83  A    between atoms: _197  and  _200
REMARK   84  A    between atoms: _200  and  _201
REMARK   85  A    between atoms: _203  and  _205
REMARK   86  A    between atoms: _205  and  _206
REMARK   87  A    between atoms: _209  and  _211
REMARK   88  A    between atoms: _211  and  _212
REMARK   89  A    between atoms: _211  and  _214
REMARK   90  A    between atoms: _214  and  _215
REMARK   91  A    between atoms: _215  and  _216
REMARK   92  A    between atoms: _221  and  _223
REMARK   93  A    between atoms: _223  and  _224
REMARK   94  A    between atoms: _223  and  _226
REMARK   95  A    between atoms: _226  and  _227
REMARK   96  A    between atoms: _233  and  _235
REMARK   97  A    between atoms: _235  and  _236
REMARK   98  A    between atoms: _235  and  _238
REMARK   99  A    between atoms: _238  and  _239
REMARK  100  A    between atoms: _239  and  _240
REMARK  101  A    between atoms: _245  and  _247
REMARK  102  A    between atoms: _247  and  _248
REMARK  103  A    between atoms: _247  and  _250
REMARK  104  A    between atoms: _250  and  _251
REMARK  105  A    between atoms: _251  and  _252
REMARK  106  A    between atoms: _257  and  _259
REMARK  107  A    between atoms: _259  and  _260
REMARK  108  A    between atoms: _259  and  _262
REMARK  109  A    between atoms: _262  and  _263
REMARK  110  A    between atoms: _266  and  _268
REMARK  111  A    between atoms: _268  and  _269
REMARK  112  A    between atoms: _268  and  _271
REMARK  113  A    between atoms: _271  and  _272
REMARK  114  A    between atoms: _275  and  _277
REMARK  115  A    between atoms: _277  and  _278
REMARK  116  A    between atoms: _277  and  _280
REMARK  117  A    between atoms: _280  and  _281
REMARK  118  A    between atoms: _286  and  _288
REMARK  119  A    between atoms: _288  and  _289
REMARK  120  A    between atoms: _288  and  _291
REMARK  121  A    between atoms: _291  and  _292
REMARK  122  A    between atoms: _297  and  _299
REMARK  123  A    between atoms: _299  and  _300
REMARK  124  A    between atoms: _302  and  _304
REMARK  125  A    between atoms: _304  and  _305
REMARK  126  A    between atoms: _304  and  _307
REMARK  127  A    between atoms: _307  and  _308
REMARK  128  A    between atoms: _311  and  _313
REMARK  129  A    between atoms: _313  and  _314
REMARK  130  A    between atoms: _316  and  _318
REMARK  131  A    between atoms: _318  and  _319
REMARK  132  A    between atoms: _318  and  _321
REMARK  133  A    between atoms: _321  and  _322
REMARK  134  A    between atoms: _325  and  _327
REMARK  135  A    between atoms: _327  and  _328
REMARK  136  A    between atoms: _331  and  _333
REMARK  137  A    between atoms: _333  and  _334
REMARK  138  A    between atoms: _333  and  _336
REMARK  139  A    between atoms: _336  and  _337
REMARK  140  A    between atoms: _340  and  _342
REMARK  141  A    between atoms: _342  and  _343
REMARK  142  A    between atoms: _342  and  _345
REMARK  143  A    between atoms: _345  and  _346
REMARK  144  A    between atoms: _349  and  _351
REMARK  145  A    between atoms: _351  and  _352
REMARK  146  A    between atoms: _351  and  _354
REMARK  147  A    between atoms: _354  and  _355
REMARK  148  A    between atoms: _355  and  _356
REMARK  149  A    between atoms: _361  and  _363
REMARK  150  A    between atoms: _363  and  _364
REMARK  151  A    between atoms: _363  and  _366
REMARK  152  A    between atoms: _366  and  _367
REMARK  153  A    between atoms: _373  and  _375
REMARK  154  A    between atoms: _375  and  _376
REMARK  155  A    between atoms: _375  and  _378
REMARK  156  A    between atoms: _378  and  _379
REMARK  157  A    between atoms: _382  and  _384
REMARK  158  A    between atoms: _384  and  _385
REMARK  159  A    between atoms: _388  and  _390
REMARK  160  A    between atoms: _390  and  _391
REMARK  161  A    between atoms: _390  and  _393
REMARK  162  A    between atoms: _393  and  _394
REMARK  163  A    between atoms: _397  and  _399
REMARK  164  A    between atoms: _399  and  _400
REMARK  165  A    between atoms: _399  and  _402
REMARK  166  A    between atoms: _402  and  _403
REMARK  167  A    between atoms: _406  and  _408
REMARK  168  A    between atoms: _408  and  _409
REMARK  169  A    between atoms: _411  and  _413
REMARK  170  A    between atoms: _413  and  _414
REMARK  171  A    between atoms: _413  and  _416
REMARK  172  A    between atoms: _416  and  _417
REMARK  173  A    between atoms: _420  and  _422
REMARK  174  A    between atoms: _422  and  _423
REMARK  175  A    between atoms: _422  and  _425
REMARK  176  A    between atoms: _425  and  _426
REMARK  177  A    between atoms: _429  and  _431
REMARK  178  A    between atoms: _431  and  _432
REMARK  179  A    between atoms: _431  and  _434
REMARK  180  A    between atoms: _434  and  _435
REMARK  181  A    between atoms: _438  and  _440
REMARK  182  A    between atoms: _440  and  _441
REMARK  183  A    between atoms: _440  and  _443
REMARK  184  A    between atoms: _443  and  _444
REMARK  185  A    between atoms: _447  and  _449
REMARK  186  A    between atoms: _449  and  _450
REMARK  187  A    between atoms: _449  and  _452
REMARK  188  A    between atoms: _452  and  _453
REMARK  189  A    between atoms: _456  and  _458
REMARK  190  A    between atoms: _458  and  _459
REMARK  191  A    between atoms: _458  and  _461
REMARK  192  A    between atoms: _461  and  _462
REMARK  193  A    between atoms: _464  and  _466
REMARK  194  A    between atoms: _466  and  _467
REMARK  195  A    between atoms: _466  and  _469
REMARK  196  A    between atoms: _469  and  _470
REMARK  197  A    between atoms: _475  and  _477
REMARK  198  A    between atoms: _477  and  _478
REMARK  199  A    between atoms: _477  and  _480
REMARK  200  A    between atoms: _480  and  _481
REMARK  201  A    between atoms: _483  and  _485
REMARK  202  A    between atoms: _485  and  _486
REMARK  203  A    between atoms: _485  and  _488
REMARK  204  A    between atoms: _488  and  _489
REMARK  205  A    between atoms: _492  and  _494
REMARK  206  A    between atoms: _494  and  _495
REMARK  207  A    between atoms: _494  and  _497
REMARK  208  A    between atoms: _497  and  _498
REMARK  209  A    between atoms: _504  and  _506
REMARK  210  A    between atoms: _506  and  _507
REMARK  211  A    between atoms: _506  and  _509
REMARK  212  A    between atoms: _509  and  _510
REMARK  213  A    between atoms: _512  and  _514
REMARK  214  A    between atoms: _514  and  _515
REMARK  215  A    between atoms: _514  and  _517
REMARK  216  A    between atoms: _517  and  _518
REMARK  217  A    between atoms: _521  and  _523
REMARK  218  A    between atoms: _523  and  _524
REMARK  219  A    between atoms: _523  and  _526
REMARK  220  A    between atoms: _526  and  _527
REMARK  221  A    between atoms: _533  and  _535
REMARK  222  A    between atoms: _535  and  _536
REMARK  223  A    between atoms: _538  and  _540
REMARK  224  A    between atoms: _540  and  _541
REMARK  225  A    between atoms: _540  and  _543
REMARK  226  A    between atoms: _543  and  _544
REMARK  227  A    between atoms: _547  and  _549
REMARK  228  A    between atoms: _549  and  _550
REMARK  229  A    between atoms: _552  and  _554
REMARK  230  A    between atoms: _554  and  _555
REMARK  231  A    between atoms: _554  and  _557
REMARK  232  A    between atoms: _557  and  _558
REMARK  233  A    between atoms: _563  and  _564
REMARK  234  A    between atoms: _566  and  _568
REMARK  235  A    between atoms: _568  and  _569
REMARK  236  A    between atoms: _568  and  _571
REMARK  237  A    between atoms: _571  and  _572
REMARK  238  A    between atoms: _575  and  _577
REMARK  239  A    between atoms: _577  and  _578
REMARK  240  A    between atoms: _577  and  _580
REMARK  241  A    between atoms: _580  and  _581
REMARK  242  A    between atoms: _584  and  _586
REMARK  243  A    between atoms: _586  and  _587
REMARK  244  A    between atoms: _586  and  _589
REMARK  245  A    between atoms: _592  and  _594
REMARK  246  A    between atoms: _594  and  _595
REMARK  247  A    between atoms: _594  and  _597
REMARK  248  A    between atoms: _597  and  _598
REMARK  249  A    between atoms: _598  and  _599
REMARK  250  A    between atoms: _605  and  _606
REMARK  251  A    between atoms: _611  and  _613
REMARK  252  A    between atoms: _613  and  _614
REMARK  253  A    between atoms: _613  and  _616
REMARK  254  A    between atoms: _616  and  _617
REMARK  255  A    between atoms: _617  and  _618
REMARK                            x       y       z     vdW  Elec       q    Type
REMARK                         _______ _______ _______ _____ _____    ______ ____
ROOT
ATOM      1  O   HOH     1      14.401   3.549  17.510  0.00  0.00    +0.000 OA
ENDROOT
TORSDOF 0
REMARK  Name = ../refined-set-2016/2web/2web_pocket.pdb
REMARK  255 active torsions:
REMARK  status: ('A' for Active; 'I' for Inactive)
REMARK    1  A    between atoms: _1  and  _3
REMARK    2  A    between atoms: _3  and  _4
REMARK    3  A    between atoms: _3  and  _6
REMARK    4  A    between atoms: _6  and  _7
REMARK    5  A    between atoms: _10  and  _12
REMARK    6  A    between atoms: _12  and  _13
REMARK    7  A    between atoms: _12  and  _15
REMARK    8  A    between atoms: _15  and  _16
REMARK    9  A    between atoms: _16  and  _17
REMARK   10  A    between atoms: _20  and  _22
REMARK   11  A    between atoms: _22  and  _23
REMARK   12  A    between atoms: _22  and  _25
REMARK   13  A    between atoms: _25  and  _26
REMARK   14  A    between atoms: _26  and  _27
REMARK   15  A    between atoms: _30  and  _32
REMARK   16  A    between atoms: _32  and  _33
REMARK   17  A    between atoms: _32  and  _35
REMARK   18  A    between atoms: _35  and  _36
REMARK   19  A    between atoms: _41  and  _42
REMARK   20  A    between atoms: _44  and  _46
REMARK   21  A    between atoms: _46  and  _47
REMARK   22  A    between atoms: _46  and  _49
REMARK   23  A    between atoms: _49  and  _50
REMARK   24  A    between atoms: _55  and  _57
REMARK   25  A    between atoms: _57  and  _58
REMARK   26  A    between atoms: _57  and  _60
REMARK   27  A    between atoms: _60  and  _61
REMARK   28  A    between atoms: _67  and  _69
REMARK   29  A    between atoms: _69  and  _70
REMARK   30  A    between atoms: _69  and  _72
REMARK   31  A    between atoms: _72  and  _73
REMARK   32  A    between atoms: _76  and  _78
REMARK   33  A    between atoms: _78  and  _79
REMARK   34  A    between atoms: _78  and  _81
REMARK   35  A    between atoms: _81  and  _82
REMARK   36  A    between atoms: _85  and  _87
REMARK   37  A    between atoms: _87  and  _88
REMARK   38  A    between atoms: _90  and  _92
REMARK   39  A    between atoms: _92  and  _93
REMARK   40  A    between atoms: _92  and  _95
REMARK   41  A    between atoms: _95  and  _96
REMARK   42  A    between atoms: _98  and  _100
REMARK   43  A    between atoms: _100  and  _101
REMARK   44  A    between atoms: _104  and  _106
REMARK   45  A    between atoms: _106  and  _107
REMARK   46  A    between atoms: _106  and  _109
REMARK   47  A    between atoms: _109  and  _110
REMARK   48  A    between atoms: _113  and  _115
REMARK   49  A    between atoms: _115  and  _116
REMARK   50  A    between atoms: _115  and  _118
REMARK   51  A    between atoms: _118  and  _119
REMARK   52  A    between atoms: _129  and  _131
REMARK   53  A    between atoms: _131  and  _132
REMARK   54  A    between atoms: _131  and  _134
REMARK   55  A    between atoms: _134  and  _135
REMARK   56  A    between atoms: _138  and  _140
REMARK   57  A    between atoms: _140  and  _141
REMARK   58  A    between atoms: _140  and  _143
REMARK   59  A    between atoms: _143  and  _144
REMARK   60  A    between atoms: _146  and  _148
REMARK   61  A    between atoms: _148  and  _149
REMARK   62  A    between atoms: _148  and  _151
REMARK   63  A    between atoms: _151  and  _152
REMARK   64  A    between atoms: _157  and  _158
REMARK   65  A    between atoms: _160  and  _162
REMARK   66  A    between atoms: _162  and  _163
REMARK   67  A    between atoms: _165  and  _167
REMARK   68  A    between atoms: _167  and  _168
REMARK   69  A    between atoms: _167  and  _170
REMARK   70  A    between atoms: _170  and  _171
REMARK   71  A    between atoms: _174  and  _176
REMARK   72  A    between atoms: _176  and  _177
REMARK   73  A    between atoms: _179  and  _181
REMARK   74  A    between atoms: _181  and  _182
REMARK   75  A    between atoms: _181  and  _184
REMARK   76  A    between atoms: _184  and  _185
REMARK   77  A    between atoms: _187  and  _189
REMARK   78  A    between atoms: _189  and  _190
REMARK   79  A    between atoms: _189  and  _192
REMARK   80  A    between atoms: _192  and  _193
REMARK   81  A    between atoms: _195  and  _197
REMARK   82  A    between atoms: _197  and  _198
REMARK   83  A    between atoms: _197  and  _200
REMARK   84  A    between atoms: _200  and  _201
REMARK   85  A    between atoms: _203  and  _205
REMARK   86  A    between atoms: _205  and  _206
REMARK   87  A    between atoms: _209  and  _211
REMARK   88  A    between atoms: _211  and  _212
REMARK   89  A    between atoms: _211  and  _214
REMARK   90  A    between atoms: _214  and  _215
REMARK   91  A    between atoms: _215  and  _216
REMARK   92  A    between atoms: _221  and  _223
REMARK   93  A    between atoms: _223  and  _224
REMARK   94  A    between atoms: _223  and  _226
REMARK   95  A    between atoms: _226  and  _227
REMARK   96  A    between atoms: _233  and  _235
REMARK   97  A    between atoms: _235  and  _236
REMARK   98  A    between atoms: _235  and  _238
REMARK   99  A    between atoms: _238  and  _239
REMARK  100  A    between atoms: _239  and  _240
REMARK  101  A    between atoms: _245  and  _247
REMARK  102  A    between atoms: _247  and  _248
REMARK  103  A    between atoms: _247  and  _250
REMARK  104  A    between atoms: _250  and  _251
REMARK  105  A    between atoms: _251  and  _252
REMARK  106  A    between atoms: _257  and  _259
REMARK  107  A    between atoms: _259  and  _260
REMARK  108  A    between atoms: _259  and  _262
REMARK  109  A    between atoms: _262  and  _263
REMARK  110  A    between atoms: _266  and  _268
REMARK  111  A    between atoms: _268  and  _269
REMARK  112  A    between atoms: _268  and  _271
REMARK  113  A    between atoms: _271  and  _272
REMARK  114  A    between atoms: _275  and  _277
REMARK  115  A    between atoms: _277  and  _278
REMARK  116  A    between atoms: _277  and  _280
REMARK  117  A    between atoms: _280  and  _281
REMARK  118  A    between atoms: _286  and  _288
REMARK  119  A    between atoms: _288  and  _289
REMARK  120  A    between atoms: _288  and  _291
REMARK  121  A    between atoms: _291  and  _292
REMARK  122  A    between atoms: _297  and  _299
REMARK  123  A    between atoms: _299  and  _300
REMARK  124  A    between atoms: _302  and  _304
REMARK  125  A    between atoms: _304  and  _305
REMARK  126  A    between atoms: _304  and  _307
REMARK  127  A    between atoms: _307  and  _308
REMARK  128  A    between atoms: _311  and  _313
REMARK  129  A    between atoms: _313  and  _314
REMARK  130  A    between atoms: _316  and  _318
REMARK  131  A    between atoms: _318  and  _319
REMARK  132  A    between atoms: _318  and  _321
REMARK  133  A    between atoms: _321  and  _322
REMARK  134  A    between atoms: _325  and  _327
REMARK  135  A    between atoms: _327  and  _328
REMARK  136  A    between atoms: _331  and  _333
REMARK  137  A    between atoms: _333  and  _334
REMARK  138  A    between atoms: _333  and  _336
REMARK  139  A    between atoms: _336  and  _337
REMARK  140  A    between atoms: _340  and  _342
REMARK  141  A    between atoms: _342  and  _343
REMARK  142  A    between atoms: _342  and  _345
REMARK  143  A    between atoms: _345  and  _346
REMARK  144  A    between atoms: _349  and  _351
REMARK  145  A    between atoms: _351  and  _352
REMARK  146  A    between atoms: _351  and  _354
REMARK  147  A    between atoms: _354  and  _355
REMARK  148  A    between atoms: _355  and  _356
REMARK  149  A    between atoms: _361  and  _363
REMARK  150  A    between atoms: _363  and  _364
REMARK  151  A    between atoms: _363  and  _366
REMARK  152  A    between atoms: _366  and  _367
REMARK  153  A    between atoms: _373  and  _375
REMARK  154  A    between atoms: _375  and  _376
REMARK  155  A    between atoms: _375  and  _378
REMARK  156  A    between atoms: _378  and  _379
REMARK  157  A    between atoms: _382  and  _384
REMARK  158  A    between atoms: _384  and  _385
REMARK  159  A    between atoms: _388  and  _390
REMARK  160  A    between atoms: _390  and  _391
REMARK  161  A    between atoms: _390  and  _393
REMARK  162  A    between atoms: _393  and  _394
REMARK  163  A    between atoms: _397  and  _399
REMARK  164  A    between atoms: _399  and  _400
REMARK  165  A    between atoms: _399  and  _402
REMARK  166  A    between atoms: _402  and  _403
REMARK  167  A    between atoms: _406  and  _408
REMARK  168  A    between atoms: _408  and  _409
REMARK  169  A    between atoms: _411  and  _413
REMARK  170  A    between atoms: _413  and  _414
REMARK  171  A    between atoms: _413  and  _416
REMARK  172  A    between atoms: _416  and  _417
REMARK  173  A    between atoms: _420  and  _422
REMARK  174  A    between atoms: _422  and  _423
REMARK  175  A    between atoms: _422  and  _425
REMARK  176  A    between atoms: _425  and  _426
REMARK  177  A    between atoms: _429  and  _431
REMARK  178  A    between atoms: _431  and  _432
REMARK  179  A    between atoms: _431  and  _434
REMARK  180  A    between atoms: _434  and  _435
REMARK  181  A    between atoms: _438  and  _440
REMARK  182  A    between atoms: _440  and  _441
REMARK  183  A    between atoms: _440  and  _443
REMARK  184  A    between atoms: _443  and  _444
REMARK  185  A    between atoms: _447  and  _449
REMARK  186  A    between atoms: _449  and  _450
REMARK  187  A    between atoms: _449  and  _452
REMARK  188  A    between atoms: _452  and  _453
REMARK  189  A    between atoms: _456  and  _458
REMARK  190  A    between atoms: _458  and  _459
REMARK  191  A    between atoms: _458  and  _461
REMARK  192  A    between atoms: _461  and  _462
REMARK  193  A    between atoms: _464  and  _466
REMARK  194  A    between atoms: _466  and  _467
REMARK  195  A    between atoms: _466  and  _469
REMARK  196  A    between atoms: _469  and  _470
REMARK  197  A    between atoms: _475  and  _477
REMARK  198  A    between atoms: _477  and  _478
REMARK  199  A    between atoms: _477  and  _480
REMARK  200  A    between atoms: _480  and  _481
REMARK  201  A    between atoms: _483  and  _485
REMARK  202  A    between atoms: _485  and  _486
REMARK  203  A    between atoms: _485  and  _488
REMARK  204  A    between atoms: _488  and  _489
REMARK  205  A    between atoms: _492  and  _494
REMARK  206  A    between atoms: _494  and  _495
REMARK  207  A    between atoms: _494  and  _497
REMARK  208  A    between atoms: _497  and  _498
REMARK  209  A    between atoms: _504  and  _506
REMARK  210  A    between atoms: _506  and  _507
REMARK  211  A    between atoms: _506  and  _509
REMARK  212  A    between atoms: _509  and  _510
REMARK  213  A    between atoms: _512  and  _514
REMARK  214  A    between atoms: _514  and  _515
REMARK  215  A    between atoms: _514  and  _517
REMARK  216  A    between atoms: _517  and  _518
REMARK  217  A    between atoms: _521  and  _523
REMARK  218  A    between atoms: _523  and  _524
REMARK  219  A    between atoms: _523  and  _526
REMARK  220  A    between atoms: _526  and  _527
REMARK  221  A    between atoms: _533  and  _535
REMARK  222  A    between atoms: _535  and  _536
REMARK  223  A    between atoms: _538  and  _540
REMARK  224  A    between atoms: _540  and  _541
REMARK  225  A    between atoms: _540  and  _543
REMARK  226  A    between atoms: _543  and  _544
REMARK  227  A    between atoms: _547  and  _549
REMARK  228  A    between atoms: _549  and  _550
REMARK  229  A    between atoms: _552  and  _554
REMARK  230  A    between atoms: _554  and  _555
REMARK  231  A    between atoms: _554  and  _557
REMARK  232  A    between atoms: _557  and  _558
REMARK  233  A    between atoms: _563  and  _564
REMARK  234  A    between atoms: _566  and  _568
REMARK  235  A    between atoms: _568  and  _569
REMARK  236  A    between atoms: _568  and  _571
REMARK  237  A    between atoms: _571  and  _572
REMARK  238  A    between atoms: _575  and  _577
REMARK  239  A    between atoms: _577  and  _578
REMARK  240  A    between atoms: _577  and  _580
REMARK  241  A    between atoms: _580  and  _581
REMARK  242  A    between atoms: _584  and  _586
REMARK  243  A    between atoms: _586  and  _587
REMARK  244  A    between atoms: _586  and  _589
REMARK  245  A    between atoms: _592  and  _594
REMARK  246  A    between atoms: _594  and  _595
REMARK  247  A    between atoms: _594  and  _597
REMARK  248  A    between atoms: _597  and  _598
REMARK  249  A    between atoms: _598  and  _599
REMARK  250  A    between atoms: _605  and  _606
REMARK  251  A    between atoms: _611  and  _613
REMARK  252  A    between atoms: _613  and  _614
REMARK  253  A    between atoms: _613  and  _616
REMARK  254  A    between atoms: _616  and  _617
REMARK  255  A    between atoms: _617  and  _618
REMARK                            x       y       z     vdW  Elec       q    Type
REMARK                         _______ _______ _______ _____ _____    ______ ____
ROOT
ATOM      1  O   HOH     1      23.050  19.853  20.951  0.00  0.00    +0.000 OA
ENDROOT
TORSDOF 0
REMARK  Name = ../refined-set-2016/2web/2web_pocket.pdb
REMARK  255 active torsions:
REMARK  status: ('A' for Active; 'I' for Inactive)
REMARK    1  A    between atoms: _1  and  _3
REMARK    2  A    between atoms: _3  and  _4
REMARK    3  A    between atoms: _3  and  _6
REMARK    4  A    between atoms: _6  and  _7
REMARK    5  A    between atoms: _10  and  _12
REMARK    6  A    between atoms: _12  and  _13
REMARK    7  A    between atoms: _12  and  _15
REMARK    8  A    between atoms: _15  and  _16
REMARK    9  A    between atoms: _16  and  _17
REMARK   10  A    between atoms: _20  and  _22
REMARK   11  A    between atoms: _22  and  _23
REMARK   12  A    between atoms: _22  and  _25
REMARK   13  A    between atoms: _25  and  _26
REMARK   14  A    between atoms: _26  and  _27
REMARK   15  A    between atoms: _30  and  _32
REMARK   16  A    between atoms: _32  and  _33
REMARK   17  A    between atoms: _32  and  _35
REMARK   18  A    between atoms: _35  and  _36
REMARK   19  A    between atoms: _41  and  _42
REMARK   20  A    between atoms: _44  and  _46
REMARK   21  A    between atoms: _46  and  _47
REMARK   22  A    between atoms: _46  and  _49
REMARK   23  A    between atoms: _49  and  _50
REMARK   24  A    between atoms: _55  and  _57
REMARK   25  A    between atoms: _57  and  _58
REMARK   26  A    between atoms: _57  and  _60
REMARK   27  A    between atoms: _60  and  _61
REMARK   28  A    between atoms: _67  and  _69
REMARK   29  A    between atoms: _69  and  _70
REMARK   30  A    between atoms: _69  and  _72
REMARK   31  A    between atoms: _72  and  _73
REMARK   32  A    between atoms: _76  and  _78
REMARK   33  A    between atoms: _78  and  _79
REMARK   34  A    between atoms: _78  and  _81
REMARK   35  A    between atoms: _81  and  _82
REMARK   36  A    between atoms: _85  and  _87
REMARK   37  A    between atoms: _87  and  _88
REMARK   38  A    between atoms: _90  and  _92
REMARK   39  A    between atoms: _92  and  _93
REMARK   40  A    between atoms: _92  and  _95
REMARK   41  A    between atoms: _95  and  _96
REMARK   42  A    between atoms: _98  and  _100
REMARK   43  A    between atoms: _100  and  _101
REMARK   44  A    between atoms: _104  and  _106
REMARK   45  A    between atoms: _106  and  _107
REMARK   46  A    between atoms: _106  and  _109
REMARK   47  A    between atoms: _109  and  _110
REMARK   48  A    between atoms: _113  and  _115
REMARK   49  A    between atoms: _115  and  _116
REMARK   50  A    between atoms: _115  and  _118
REMARK   51  A    between atoms: _118  and  _119
REMARK   52  A    between atoms: _129  and  _131
REMARK   53  A    between atoms: _131  and  _132
REMARK   54  A    between atoms: _131  and  _134
REMARK   55  A    between atoms: _134  and  _135
REMARK   56  A    between atoms: _138  and  _140
REMARK   57  A    between atoms: _140  and  _141
REMARK   58  A    between atoms: _140  and  _143
REMARK   59  A    between atoms: _143  and  _144
REMARK   60  A    between atoms: _146  and  _148
REMARK   61  A    between atoms: _148  and  _149
REMARK   62  A    between atoms: _148  and  _151
REMARK   63  A    between atoms: _151  and  _152
REMARK   64  A    between atoms: _157  and  _158
REMARK   65  A    between atoms: _160  and  _162
REMARK   66  A    between atoms: _162  and  _163
REMARK   67  A    between atoms: _165  and  _167
REMARK   68  A    between atoms: _167  and  _168
REMARK   69  A    between atoms: _167  and  _170
REMARK   70  A    between atoms: _170  and  _171
REMARK   71  A    between atoms: _174  and  _176
REMARK   72  A    between atoms: _176  and  _177
REMARK   73  A    between atoms: _179  and  _181
REMARK   74  A    between atoms: _181  and  _182
REMARK   75  A    between atoms: _181  and  _184
REMARK   76  A    between atoms: _184  and  _185
REMARK   77  A    between atoms: _187  and  _189
REMARK   78  A    between atoms: _189  and  _190
REMARK   79  A    between atoms: _189  and  _192
REMARK   80  A    between atoms: _192  and  _193
REMARK   81  A    between atoms: _195  and  _197
REMARK   82  A    between atoms: _197  and  _198
REMARK   83  A    between atoms: _197  and  _200
REMARK   84  A    between atoms: _200  and  _201
REMARK   85  A    between atoms: _203  and  _205
REMARK   86  A    between atoms: _205  and  _206
REMARK   87  A    between atoms: _209  and  _211
REMARK   88  A    between atoms: _211  and  _212
REMARK   89  A    between atoms: _211  and  _214
REMARK   90  A    between atoms: _214  and  _215
REMARK   91  A    between atoms: _215  and  _216
REMARK   92  A    between atoms: _221  and  _223
REMARK   93  A    between atoms: _223  and  _224
REMARK   94  A    between atoms: _223  and  _226
REMARK   95  A    between atoms: _226  and  _227
REMARK   96  A    between atoms: _233  and  _235
REMARK   97  A    between atoms: _235  and  _236
REMARK   98  A    between atoms: _235  and  _238
REMARK   99  A    between atoms: _238  and  _239
REMARK  100  A    between atoms: _239  and  _240
REMARK  101  A    between atoms: _245  and  _247
REMARK  102  A    between atoms: _247  and  _248
REMARK  103  A    between atoms: _247  and  _250
REMARK  104  A    between atoms: _250  and  _251
REMARK  105  A    between atoms: _251  and  _252
REMARK  106  A    between atoms: _257  and  _259
REMARK  107  A    between atoms: _259  and  _260
REMARK  108  A    between atoms: _259  and  _262
REMARK  109  A    between atoms: _262  and  _263
REMARK  110  A    between atoms: _266  and  _268
REMARK  111  A    between atoms: _268  and  _269
REMARK  112  A    between atoms: _268  and  _271
REMARK  113  A    between atoms: _271  and  _272
REMARK  114  A    between atoms: _275  and  _277
REMARK  115  A    between atoms: _277  and  _278
REMARK  116  A    between atoms: _277  and  _280
REMARK  117  A    between atoms: _280  and  _281
REMARK  118  A    between atoms: _286  and  _288
REMARK  119  A    between atoms: _288  and  _289
REMARK  120  A    between atoms: _288  and  _291
REMARK  121  A    between atoms: _291  and  _292
REMARK  122  A    between atoms: _297  and  _299
REMARK  123  A    between atoms: _299  and  _300
REMARK  124  A    between atoms: _302  and  _304
REMARK  125  A    between atoms: _304  and  _305
REMARK  126  A    between atoms: _304  and  _307
REMARK  127  A    between atoms: _307  and  _308
REMARK  128  A    between atoms: _311  and  _313
REMARK  129  A    between atoms: _313  and  _314
REMARK  130  A    between atoms: _316  and  _318
REMARK  131  A    between atoms: _318  and  _319
REMARK  132  A    between atoms: _318  and  _321
REMARK  133  A    between atoms: _321  and  _322
REMARK  134  A    between atoms: _325  and  _327
REMARK  135  A    between atoms: _327  and  _328
REMARK  136  A    between atoms: _331  and  _333
REMARK  137  A    between atoms: _333  and  _334
REMARK  138  A    between atoms: _333  and  _336
REMARK  139  A    between atoms: _336  and  _337
REMARK  140  A    between atoms: _340  and  _342
REMARK  141  A    between atoms: _342  and  _343
REMARK  142  A    between atoms: _342  and  _345
REMARK  143  A    between atoms: _345  and  _346
REMARK  144  A    between atoms: _349  and  _351
REMARK  145  A    between atoms: _351  and  _352
REMARK  146  A    between atoms: _351  and  _354
REMARK  147  A    between atoms: _354  and  _355
REMARK  148  A    between atoms: _355  and  _356
REMARK  149  A    between atoms: _361  and  _363
REMARK  150  A    between atoms: _363  and  _364
REMARK  151  A    between atoms: _363  and  _366
REMARK  152  A    between atoms: _366  and  _367
REMARK  153  A    between atoms: _373  and  _375
REMARK  154  A    between atoms: _375  and  _376
REMARK  155  A    between atoms: _375  and  _378
REMARK  156  A    between atoms: _378  and  _379
REMARK  157  A    between atoms: _382  and  _384
REMARK  158  A    between atoms: _384  and  _385
REMARK  159  A    between atoms: _388  and  _390
REMARK  160  A    between atoms: _390  and  _391
REMARK  161  A    between atoms: _390  and  _393
REMARK  162  A    between atoms: _393  and  _394
REMARK  163  A    between atoms: _397  and  _399
REMARK  164  A    between atoms: _399  and  _400
REMARK  165  A    between atoms: _399  and  _402
REMARK  166  A    between atoms: _402  and  _403
REMARK  167  A    between atoms: _406  and  _408
REMARK  168  A    between atoms: _408  and  _409
REMARK  169  A    between atoms: _411  and  _413
REMARK  170  A    between atoms: _413  and  _414
REMARK  171  A    between atoms: _413  and  _416
REMARK  172  A    between atoms: _416  and  _417
REMARK  173  A    between atoms: _420  and  _422
REMARK  174  A    between atoms: _422  and  _423
REMARK  175  A    between atoms: _422  and  _425
REMARK  176  A    between atoms: _425  and  _426
REMARK  177  A    between atoms: _429  and  _431
REMARK  178  A    between atoms: _431  and  _432
REMARK  179  A    between atoms: _431  and  _434
REMARK  180  A    between atoms: _434  and  _435
REMARK  181  A    between atoms: _438  and  _440
REMARK  182  A    between atoms: _440  and  _441
REMARK  183  A    between atoms: _440  and  _443
REMARK  184  A    between atoms: _443  and  _444
REMARK  185  A    between atoms: _447  and  _449
REMARK  186  A    between atoms: _449  and  _450
REMARK  187  A    between atoms: _449  and  _452
REMARK  188  A    between atoms: _452  and  _453
REMARK  189  A    between atoms: _456  and  _458
REMARK  190  A    between atoms: _458  and  _459
REMARK  191  A    between atoms: _458  and  _461
REMARK  192  A    between atoms: _461  and  _462
REMARK  193  A    between atoms: _464  and  _466
REMARK  194  A    between atoms: _466  and  _467
REMARK  195  A    between atoms: _466  and  _469
REMARK  196  A    between atoms: _469  and  _470
REMARK  197  A    between atoms: _475  and  _477
REMARK  198  A    between atoms: _477  and  _478
REMARK  199  A    between atoms: _477  and  _480
REMARK  200  A    between atoms: _480  and  _481
REMARK  201  A    between atoms: _483  and  _485
REMARK  202  A    between atoms: _485  and  _486
REMARK  203  A    between atoms: _485  and  _488
REMARK  204  A    between atoms: _488  and  _489
REMARK  205  A    between atoms: _492  and  _494
REMARK  206  A    between atoms: _494  and  _495
REMARK  207  A    between atoms: _494  and  _497
REMARK  208  A    between atoms: _497  and  _498
REMARK  209  A    between atoms: _504  and  _506
REMARK  210  A    between atoms: _506  and  _507
REMARK  211  A    between atoms: _506  and  _509
REMARK  212  A    between atoms: _509  and  _510
REMARK  213  A    between atoms: _512  and  _514
REMARK  214  A    between atoms: _514  and  _515
REMARK  215  A    between atoms: _514  and  _517
REMARK  216  A    between atoms: _517  and  _518
REMARK  217  A    between atoms: _521  and  _523
REMARK  218  A    between atoms: _523  and  _524
REMARK  219  A    between atoms: _523  and  _526
REMARK  220  A    between atoms: _526  and  _527
REMARK  221  A    between atoms: _533  and  _535
REMARK  222  A    between atoms: _535  and  _536
REMARK  223  A    between atoms: _538  and  _540
REMARK  224  A    between atoms: _540  and  _541
REMARK  225  A    between atoms: _540  and  _543
REMARK  226  A    between atoms: _543  and  _544
REMARK  227  A    between atoms: _547  and  _549
REMARK  228  A    between atoms: _549  and  _550
REMARK  229  A    between atoms: _552  and  _554
REMARK  230  A    between atoms: _554  and  _555
REMARK  231  A    between atoms: _554  and  _557
REMARK  232  A    between atoms: _557  and  _558
REMARK  233  A    between atoms: _563  and  _564
REMARK  234  A    between atoms: _566  and  _568
REMARK  235  A    between atoms: _568  and  _569
REMARK  236  A    between atoms: _568  and  _571
REMARK  237  A    between atoms: _571  and  _572
REMARK  238  A    between atoms: _575  and  _577
REMARK  239  A    between atoms: _577  and  _578
REMARK  240  A    between atoms: _577  and  _580
REMARK  241  A    between atoms: _580  and  _581
REMARK  242  A    between atoms: _584  and  _586
REMARK  243  A    between atoms: _586  and  _587
REMARK  244  A    between atoms: _586  and  _589
REMARK  245  A    between atoms: _592  and  _594
REMARK  246  A    between atoms: _594  and  _595
REMARK  247  A    between atoms: _594  and  _597
REMARK  248  A    between atoms: _597  and  _598
REMARK  249  A    between atoms: _598  and  _599
REMARK  250  A    between atoms: _605  and  _606
REMARK  251  A    between atoms: _611  and  _613
REMARK  252  A    between atoms: _613  and  _614
REMARK  253  A    between atoms: _613  and  _616
REMARK  254  A    between atoms: _616  and  _617
REMARK  255  A    between atoms: _617  and  _618
REMARK                            x       y       z     vdW  Elec       q    Type
REMARK                         _______ _______ _______ _____ _____    ______ ____
ROOT
ATOM      1  O   HOH     1      31.287  14.597  23.476  0.00  0.00    +0.000 OA
ENDROOT
TORSDOF 0
REMARK  Name = ../refined-set-2016/2web/2web_pocket.pdb
REMARK  255 active torsions:
REMARK  status: ('A' for Active; 'I' for Inactive)
REMARK    1  A    between atoms: _1  and  _3
REMARK    2  A    between atoms: _3  and  _4
REMARK    3  A    between atoms: _3  and  _6
REMARK    4  A    between atoms: _6  and  _7
REMARK    5  A    between atoms: _10  and  _12
REMARK    6  A    between atoms: _12  and  _13
REMARK    7  A    between atoms: _12  and  _15
REMARK    8  A    between atoms: _15  and  _16
REMARK    9  A    between atoms: _16  and  _17
REMARK   10  A    between atoms: _20  and  _22
REMARK   11  A    between atoms: _22  and  _23
REMARK   12  A    between atoms: _22  and  _25
REMARK   13  A    between atoms: _25  and  _26
REMARK   14  A    between atoms: _26  and  _27
REMARK   15  A    between atoms: _30  and  _32
REMARK   16  A    between atoms: _32  and  _33
REMARK   17  A    between atoms: _32  and  _35
REMARK   18  A    between atoms: _35  and  _36
REMARK   19  A    between atoms: _41  and  _42
REMARK   20  A    between atoms: _44  and  _46
REMARK   21  A    between atoms: _46  and  _47
REMARK   22  A    between atoms: _46  and  _49
REMARK   23  A    between atoms: _49  and  _50
REMARK   24  A    between atoms: _55  and  _57
REMARK   25  A    between atoms: _57  and  _58
REMARK   26  A    between atoms: _57  and  _60
REMARK   27  A    between atoms: _60  and  _61
REMARK   28  A    between atoms: _67  and  _69
REMARK   29  A    between atoms: _69  and  _70
REMARK   30  A    between atoms: _69  and  _72
REMARK   31  A    between atoms: _72  and  _73
REMARK   32  A    between atoms: _76  and  _78
REMARK   33  A    between atoms: _78  and  _79
REMARK   34  A    between atoms: _78  and  _81
REMARK   35  A    between atoms: _81  and  _82
REMARK   36  A    between atoms: _85  and  _87
REMARK   37  A    between atoms: _87  and  _88
REMARK   38  A    between atoms: _90  and  _92
REMARK   39  A    between atoms: _92  and  _93
REMARK   40  A    between atoms: _92  and  _95
REMARK   41  A    between atoms: _95  and  _96
REMARK   42  A    between atoms: _98  and  _100
REMARK   43  A    between atoms: _100  and  _101
REMARK   44  A    between atoms: _104  and  _106
REMARK   45  A    between atoms: _106  and  _107
REMARK   46  A    between atoms: _106  and  _109
REMARK   47  A    between atoms: _109  and  _110
REMARK   48  A    between atoms: _113  and  _115
REMARK   49  A    between atoms: _115  and  _116
REMARK   50  A    between atoms: _115  and  _118
REMARK   51  A    between atoms: _118  and  _119
REMARK   52  A    between atoms: _129  and  _131
REMARK   53  A    between atoms: _131  and  _132
REMARK   54  A    between atoms: _131  and  _134
REMARK   55  A    between atoms: _134  and  _135
REMARK   56  A    between atoms: _138  and  _140
REMARK   57  A    between atoms: _140  and  _141
REMARK   58  A    between atoms: _140  and  _143
REMARK   59  A    between atoms: _143  and  _144
REMARK   60  A    between atoms: _146  and  _148
REMARK   61  A    between atoms: _148  and  _149
REMARK   62  A    between atoms: _148  and  _151
REMARK   63  A    between atoms: _151  and  _152
REMARK   64  A    between atoms: _157  and  _158
REMARK   65  A    between atoms: _160  and  _162
REMARK   66  A    between atoms: _162  and  _163
REMARK   67  A    between atoms: _165  and  _167
REMARK   68  A    between atoms: _167  and  _168
REMARK   69  A    between atoms: _167  and  _170
REMARK   70  A    between atoms: _170  and  _171
REMARK   71  A    between atoms: _174  and  _176
REMARK   72  A    between atoms: _176  and  _177
REMARK   73  A    between atoms: _179  and  _181
REMARK   74  A    between atoms: _181  and  _182
REMARK   75  A    between atoms: _181  and  _184
REMARK   76  A    between atoms: _184  and  _185
REMARK   77  A    between atoms: _187  and  _189
REMARK   78  A    between atoms: _189  and  _190
REMARK   79  A    between atoms: _189  and  _192
REMARK   80  A    between atoms: _192  and  _193
REMARK   81  A    between atoms: _195  and  _197
REMARK   82  A    between atoms: _197  and  _198
REMARK   83  A    between atoms: _197  and  _200
REMARK   84  A    between atoms: _200  and  _201
REMARK   85  A    between atoms: _203  and  _205
REMARK   86  A    between atoms: _205  and  _206
REMARK   87  A    between atoms: _209  and  _211
REMARK   88  A    between atoms: _211  and  _212
REMARK   89  A    between atoms: _211  and  _214
REMARK   90  A    between atoms: _214  and  _215
REMARK   91  A    between atoms: _215  and  _216
REMARK   92  A    between atoms: _221  and  _223
REMARK   93  A    between atoms: _223  and  _224
REMARK   94  A    between atoms: _223  and  _226
REMARK   95  A    between atoms: _226  and  _227
REMARK   96  A    between atoms: _233  and  _235
REMARK   97  A    between atoms: _235  and  _236
REMARK   98  A    between atoms: _235  and  _238
REMARK   99  A    between atoms: _238  and  _239
REMARK  100  A    between atoms: _239  and  _240
REMARK  101  A    between atoms: _245  and  _247
REMARK  102  A    between atoms: _247  and  _248
REMARK  103  A    between atoms: _247  and  _250
REMARK  104  A    between atoms: _250  and  _251
REMARK  105  A    between atoms: _251  and  _252
REMARK  106  A    between atoms: _257  and  _259
REMARK  107  A    between atoms: _259  and  _260
REMARK  108  A    between atoms: _259  and  _262
REMARK  109  A    between atoms: _262  and  _263
REMARK  110  A    between atoms: _266  and  _268
REMARK  111  A    between atoms: _268  and  _269
REMARK  112  A    between atoms: _268  and  _271
REMARK  113  A    between atoms: _271  and  _272
REMARK  114  A    between atoms: _275  and  _277
REMARK  115  A    between atoms: _277  and  _278
REMARK  116  A    between atoms: _277  and  _280
REMARK  117  A    between atoms: _280  and  _281
REMARK  118  A    between atoms: _286  and  _288
REMARK  119  A    between atoms: _288  and  _289
REMARK  120  A    between atoms: _288  and  _291
REMARK  121  A    between atoms: _291  and  _292
REMARK  122  A    between atoms: _297  and  _299
REMARK  123  A    between atoms: _299  and  _300
REMARK  124  A    between atoms: _302  and  _304
REMARK  125  A    between atoms: _304  and  _305
REMARK  126  A    between atoms: _304  and  _307
REMARK  127  A    between atoms: _307  and  _308
REMARK  128  A    between atoms: _311  and  _313
REMARK  129  A    between atoms: _313  and  _314
REMARK  130  A    between atoms: _316  and  _318
REMARK  131  A    between atoms: _318  and  _319
REMARK  132  A    between atoms: _318  and  _321
REMARK  133  A    between atoms: _321  and  _322
REMARK  134  A    between atoms: _325  and  _327
REMARK  135  A    between atoms: _327  and  _328
REMARK  136  A    between atoms: _331  and  _333
REMARK  137  A    between atoms: _333  and  _334
REMARK  138  A    between atoms: _333  and  _336
REMARK  139  A    between atoms: _336  and  _337
REMARK  140  A    between atoms: _340  and  _342
REMARK  141  A    between atoms: _342  and  _343
REMARK  142  A    between atoms: _342  and  _345
REMARK  143  A    between atoms: _345  and  _346
REMARK  144  A    between atoms: _349  and  _351
REMARK  145  A    between atoms: _351  and  _352
REMARK  146  A    between atoms: _351  and  _354
REMARK  147  A    between atoms: _354  and  _355
REMARK  148  A    between atoms: _355  and  _356
REMARK  149  A    between atoms: _361  and  _363
REMARK  150  A    between atoms: _363  and  _364
REMARK  151  A    between atoms: _363  and  _366
REMARK  152  A    between atoms: _366  and  _367
REMARK  153  A    between atoms: _373  and  _375
REMARK  154  A    between atoms: _375  and  _376
REMARK  155  A    between atoms: _375  and  _378
REMARK  156  A    between atoms: _378  and  _379
REMARK  157  A    between atoms: _382  and  _384
REMARK  158  A    between atoms: _384  and  _385
REMARK  159  A    between atoms: _388  and  _390
REMARK  160  A    between atoms: _390  and  _391
REMARK  161  A    between atoms: _390  and  _393
REMARK  162  A    between atoms: _393  and  _394
REMARK  163  A    between atoms: _397  and  _399
REMARK  164  A    between atoms: _399  and  _400
REMARK  165  A    between atoms: _399  and  _402
REMARK  166  A    between atoms: _402  and  _403
REMARK  167  A    between atoms: _406  and  _408
REMARK  168  A    between atoms: _408  and  _409
REMARK  169  A    between atoms: _411  and  _413
REMARK  170  A    between atoms: _413  and  _414
REMARK  171  A    between atoms: _413  and  _416
REMARK  172  A    between atoms: _416  and  _417
REMARK  173  A    between atoms: _420  and  _422
REMARK  174  A    between atoms: _422  and  _423
REMARK  175  A    between atoms: _422  and  _425
REMARK  176  A    between atoms: _425  and  _426
REMARK  177  A    between atoms: _429  and  _431
REMARK  178  A    between atoms: _431  and  _432
REMARK  179  A    between atoms: _431  and  _434
REMARK  180  A    between atoms: _434  and  _435
REMARK  181  A    between atoms: _438  and  _440
REMARK  182  A    between atoms: _440  and  _441
REMARK  183  A    between atoms: _440  and  _443
REMARK  184  A    between atoms: _443  and  _444
REMARK  185  A    between atoms: _447  and  _449
REMARK  186  A    between atoms: _449  and  _450
REMARK  187  A    between atoms: _449  and  _452
REMARK  188  A    between atoms: _452  and  _453
REMARK  189  A    between atoms: _456  and  _458
REMARK  190  A    between atoms: _458  and  _459
REMARK  191  A    between atoms: _458  and  _461
REMARK  192  A    between atoms: _461  and  _462
REMARK  193  A    between atoms: _464  and  _466
REMARK  194  A    between atoms: _466  and  _467
REMARK  195  A    between atoms: _466  and  _469
REMARK  196  A    between atoms: _469  and  _470
REMARK  197  A    between atoms: _475  and  _477
REMARK  198  A    between atoms: _477  and  _478
REMARK  199  A    between atoms: _477  and  _480
REMARK  200  A    between atoms: _480  and  _481
REMARK  201  A    between atoms: _483  and  _485
REMARK  202  A    between atoms: _485  and  _486
REMARK  203  A    between atoms: _485  and  _488
REMARK  204  A    between atoms: _488  and  _489
REMARK  205  A    between atoms: _492  and  _494
REMARK  206  A    between atoms: _494  and  _495
REMARK  207  A    between atoms: _494  and  _497
REMARK  208  A    between atoms: _497  and  _498
REMARK  209  A    between atoms: _504  and  _506
REMARK  210  A    between atoms: _506  and  _507
REMARK  211  A    between atoms: _506  and  _509
REMARK  212  A    between atoms: _509  and  _510
REMARK  213  A    between atoms: _512  and  _514
REMARK  214  A    between atoms: _514  and  _515
REMARK  215  A    between atoms: _514  and  _517
REMARK  216  A    between atoms: _517  and  _518
REMARK  217  A    between atoms: _521  and  _523
REMARK  218  A    between atoms: _523  and  _524
REMARK  219  A    between atoms: _523  and  _526
REMARK  220  A    between atoms: _526  and  _527
REMARK  221  A    between atoms: _533  and  _535
REMARK  222  A    between atoms: _535  and  _536
REMARK  223  A    between atoms: _538  and  _540
REMARK  224  A    between atoms: _540  and  _541
REMARK  225  A    between atoms: _540  and  _543
REMARK  226  A    between atoms: _543  and  _544
REMARK  227  A    between atoms: _547  and  _549
REMARK  228  A    between atoms: _549  and  _550
REMARK  229  A    between atoms: _552  and  _554
REMARK  230  A    between atoms: _554  and  _555
REMARK  231  A    between atoms: _554  and  _557
REMARK  232  A    between atoms: _557  and  _558
REMARK  233  A    between atoms: _563  and  _564
REMARK  234  A    between atoms: _566  and  _568
REMARK  235  A    between atoms: _568  and  _569
REMARK  236  A    between atoms: _568  and  _571
REMARK  237  A    between atoms: _571  and  _572
REMARK  238  A    between atoms: _575  and  _577
REMARK  239  A    between atoms: _577  and  _578
REMARK  240  A    between atoms: _577  and  _580
REMARK  241  A    between atoms: _580  and  _581
REMARK  242  A    between atoms: _584  and  _586
REMARK  243  A    between atoms: _586  and  _587
REMARK  244  A    between atoms: _586  and  _589
REMARK  245  A    between atoms: _592  and  _594
REMARK  246  A    between atoms: _594  and  _595
REMARK  247  A    between atoms: _594  and  _597
REMARK  248  A    between atoms: _597  and  _598
REMARK  249  A    between atoms: _598  and  _599
REMARK  250  A    between atoms: _605  and  _606
REMARK  251  A    between atoms: _611  and  _613
REMARK  252  A    between atoms: _613  and  _614
REMARK  253  A    between atoms: _613  and  _616
REMARK  254  A    between atoms: _616  and  _617
REMARK  255  A    between atoms: _617  and  _618
REMARK                            x       y       z     vdW  Elec       q    Type
REMARK                         _______ _______ _______ _____ _____    ______ ____
ROOT
ATOM      1  O   HOH     1      27.836   1.519  15.003  0.00  0.00    +0.000 OA
ENDROOT
TORSDOF 0
REMARK  Name = ../refined-set-2016/2web/2web_pocket.pdb
REMARK  255 active torsions:
REMARK  status: ('A' for Active; 'I' for Inactive)
REMARK    1  A    between atoms: _1  and  _3
REMARK    2  A    between atoms: _3  and  _4
REMARK    3  A    between atoms: _3  and  _6
REMARK    4  A    between atoms: _6  and  _7
REMARK    5  A    between atoms: _10  and  _12
REMARK    6  A    between atoms: _12  and  _13
REMARK    7  A    between atoms: _12  and  _15
REMARK    8  A    between atoms: _15  and  _16
REMARK    9  A    between atoms: _16  and  _17
REMARK   10  A    between atoms: _20  and  _22
REMARK   11  A    between atoms: _22  and  _23
REMARK   12  A    between atoms: _22  and  _25
REMARK   13  A    between atoms: _25  and  _26
REMARK   14  A    between atoms: _26  and  _27
REMARK   15  A    between atoms: _30  and  _32
REMARK   16  A    between atoms: _32  and  _33
REMARK   17  A    between atoms: _32  and  _35
REMARK   18  A    between atoms: _35  and  _36
REMARK   19  A    between atoms: _41  and  _42
REMARK   20  A    between atoms: _44  and  _46
REMARK   21  A    between atoms: _46  and  _47
REMARK   22  A    between atoms: _46  and  _49
REMARK   23  A    between atoms: _49  and  _50
REMARK   24  A    between atoms: _55  and  _57
REMARK   25  A    between atoms: _57  and  _58
REMARK   26  A    between atoms: _57  and  _60
REMARK   27  A    between atoms: _60  and  _61
REMARK   28  A    between atoms: _67  and  _69
REMARK   29  A    between atoms: _69  and  _70
REMARK   30  A    between atoms: _69  and  _72
REMARK   31  A    between atoms: _72  and  _73
REMARK   32  A    between atoms: _76  and  _78
REMARK   33  A    between atoms: _78  and  _79
REMARK   34  A    between atoms: _78  and  _81
REMARK   35  A    between atoms: _81  and  _82
REMARK   36  A    between atoms: _85  and  _87
REMARK   37  A    between atoms: _87  and  _88
REMARK   38  A    between atoms: _90  and  _92
REMARK   39  A    between atoms: _92  and  _93
REMARK   40  A    between atoms: _92  and  _95
REMARK   41  A    between atoms: _95  and  _96
REMARK   42  A    between atoms: _98  and  _100
REMARK   43  A    between atoms: _100  and  _101
REMARK   44  A    between atoms: _104  and  _106
REMARK   45  A    between atoms: _106  and  _107
REMARK   46  A    between atoms: _106  and  _109
REMARK   47  A    between atoms: _109  and  _110
REMARK   48  A    between atoms: _113  and  _115
REMARK   49  A    between atoms: _115  and  _116
REMARK   50  A    between atoms: _115  and  _118
REMARK   51  A    between atoms: _118  and  _119
REMARK   52  A    between atoms: _129  and  _131
REMARK   53  A    between atoms: _131  and  _132
REMARK   54  A    between atoms: _131  and  _134
REMARK   55  A    between atoms: _134  and  _135
REMARK   56  A    between atoms: _138  and  _140
REMARK   57  A    between atoms: _140  and  _141
REMARK   58  A    between atoms: _140  and  _143
REMARK   59  A    between atoms: _143  and  _144
REMARK   60  A    between atoms: _146  and  _148
REMARK   61  A    between atoms: _148  and  _149
REMARK   62  A    between atoms: _148  and  _151
REMARK   63  A    between atoms: _151  and  _152
REMARK   64  A    between atoms: _157  and  _158
REMARK   65  A    between atoms: _160  and  _162
REMARK   66  A    between atoms: _162  and  _163
REMARK   67  A    between atoms: _165  and  _167
REMARK   68  A    between atoms: _167  and  _168
REMARK   69  A    between atoms: _167  and  _170
REMARK   70  A    between atoms: _170  and  _171
REMARK   71  A    between atoms: _174  and  _176
REMARK   72  A    between atoms: _176  and  _177
REMARK   73  A    between atoms: _179  and  _181
REMARK   74  A    between atoms: _181  and  _182
REMARK   75  A    between atoms: _181  and  _184
REMARK   76  A    between atoms: _184  and  _185
REMARK   77  A    between atoms: _187  and  _189
REMARK   78  A    between atoms: _189  and  _190
REMARK   79  A    between atoms: _189  and  _192
REMARK   80  A    between atoms: _192  and  _193
REMARK   81  A    between atoms: _195  and  _197
REMARK   82  A    between atoms: _197  and  _198
REMARK   83  A    between atoms: _197  and  _200
REMARK   84  A    between atoms: _200  and  _201
REMARK   85  A    between atoms: _203  and  _205
REMARK   86  A    between atoms: _205  and  _206
REMARK   87  A    between atoms: _209  and  _211
REMARK   88  A    between atoms: _211  and  _212
REMARK   89  A    between atoms: _211  and  _214
REMARK   90  A    between atoms: _214  and  _215
REMARK   91  A    between atoms: _215  and  _216
REMARK   92  A    between atoms: _221  and  _223
REMARK   93  A    between atoms: _223  and  _224
REMARK   94  A    between atoms: _223  and  _226
REMARK   95  A    between atoms: _226  and  _227
REMARK   96  A    between atoms: _233  and  _235
REMARK   97  A    between atoms: _235  and  _236
REMARK   98  A    between atoms: _235  and  _238
REMARK   99  A    between atoms: _238  and  _239
REMARK  100  A    between atoms: _239  and  _240
REMARK  101  A    between atoms: _245  and  _247
REMARK  102  A    between atoms: _247  and  _248
REMARK  103  A    between atoms: _247  and  _250
REMARK  104  A    between atoms: _250  and  _251
REMARK  105  A    between atoms: _251  and  _252
REMARK  106  A    between atoms: _257  and  _259
REMARK  107  A    between atoms: _259  and  _260
REMARK  108  A    between atoms: _259  and  _262
REMARK  109  A    between atoms: _262  and  _263
REMARK  110  A    between atoms: _266  and  _268
REMARK  111  A    between atoms: _268  and  _269
REMARK  112  A    between atoms: _268  and  _271
REMARK  113  A    between atoms: _271  and  _272
REMARK  114  A    between atoms: _275  and  _277
REMARK  115  A    between atoms: _277  and  _278
REMARK  116  A    between atoms: _277  and  _280
REMARK  117  A    between atoms: _280  and  _281
REMARK  118  A    between atoms: _286  and  _288
REMARK  119  A    between atoms: _288  and  _289
REMARK  120  A    between atoms: _288  and  _291
REMARK  121  A    between atoms: _291  and  _292
REMARK  122  A    between atoms: _297  and  _299
REMARK  123  A    between atoms: _299  and  _300
REMARK  124  A    between atoms: _302  and  _304
REMARK  125  A    between atoms: _304  and  _305
REMARK  126  A    between atoms: _304  and  _307
REMARK  127  A    between atoms: _307  and  _308
REMARK  128  A    between atoms: _311  and  _313
REMARK  129  A    between atoms: _313  and  _314
REMARK  130  A    between atoms: _316  and  _318
REMARK  131  A    between atoms: _318  and  _319
REMARK  132  A    between atoms: _318  and  _321
REMARK  133  A    between atoms: _321  and  _322
REMARK  134  A    between atoms: _325  and  _327
REMARK  135  A    between atoms: _327  and  _328
REMARK  136  A    between atoms: _331  and  _333
REMARK  137  A    between atoms: _333  and  _334
REMARK  138  A    between atoms: _333  and  _336
REMARK  139  A    between atoms: _336  and  _337
REMARK  140  A    between atoms: _340  and  _342
REMARK  141  A    between atoms: _342  and  _343
REMARK  142  A    between atoms: _342  and  _345
REMARK  143  A    between atoms: _345  and  _346
REMARK  144  A    between atoms: _349  and  _351
REMARK  145  A    between atoms: _351  and  _352
REMARK  146  A    between atoms: _351  and  _354
REMARK  147  A    between atoms: _354  and  _355
REMARK  148  A    between atoms: _355  and  _356
REMARK  149  A    between atoms: _361  and  _363
REMARK  150  A    between atoms: _363  and  _364
REMARK  151  A    between atoms: _363  and  _366
REMARK  152  A    between atoms: _366  and  _367
REMARK  153  A    between atoms: _373  and  _375
REMARK  154  A    between atoms: _375  and  _376
REMARK  155  A    between atoms: _375  and  _378
REMARK  156  A    between atoms: _378  and  _379
REMARK  157  A    between atoms: _382  and  _384
REMARK  158  A    between atoms: _384  and  _385
REMARK  159  A    between atoms: _388  and  _390
REMARK  160  A    between atoms: _390  and  _391
REMARK  161  A    between atoms: _390  and  _393
REMARK  162  A    between atoms: _393  and  _394
REMARK  163  A    between atoms: _397  and  _399
REMARK  164  A    between atoms: _399  and  _400
REMARK  165  A    between atoms: _399  and  _402
REMARK  166  A    between atoms: _402  and  _403
REMARK  167  A    between atoms: _406  and  _408
REMARK  168  A    between atoms: _408  and  _409
REMARK  169  A    between atoms: _411  and  _413
REMARK  170  A    between atoms: _413  and  _414
REMARK  171  A    between atoms: _413  and  _416
REMARK  172  A    between atoms: _416  and  _417
REMARK  173  A    between atoms: _420  and  _422
REMARK  174  A    between atoms: _422  and  _423
REMARK  175  A    between atoms: _422  and  _425
REMARK  176  A    between atoms: _425  and  _426
REMARK  177  A    between atoms: _429  and  _431
REMARK  178  A    between atoms: _431  and  _432
REMARK  179  A    between atoms: _431  and  _434
REMARK  180  A    between atoms: _434  and  _435
REMARK  181  A    between atoms: _438  and  _440
REMARK  182  A    between atoms: _440  and  _441
REMARK  183  A    between atoms: _440  and  _443
REMARK  184  A    between atoms: _443  and  _444
REMARK  185  A    between atoms: _447  and  _449
REMARK  186  A    between atoms: _449  and  _450
REMARK  187  A    between atoms: _449  and  _452
REMARK  188  A    between atoms: _452  and  _453
REMARK  189  A    between atoms: _456  and  _458
REMARK  190  A    between atoms: _458  and  _459
REMARK  191  A    between atoms: _458  and  _461
REMARK  192  A    between atoms: _461  and  _462
REMARK  193  A    between atoms: _464  and  _466
REMARK  194  A    between atoms: _466  and  _467
REMARK  195  A    between atoms: _466  and  _469
REMARK  196  A    between atoms: _469  and  _470
REMARK  197  A    between atoms: _475  and  _477
REMARK  198  A    between atoms: _477  and  _478
REMARK  199  A    between atoms: _477  and  _480
REMARK  200  A    between atoms: _480  and  _481
REMARK  201  A    between atoms: _483  and  _485
REMARK  202  A    between atoms: _485  and  _486
REMARK  203  A    between atoms: _485  and  _488
REMARK  204  A    between atoms: _488  and  _489
REMARK  205  A    between atoms: _492  and  _494
REMARK  206  A    between atoms: _494  and  _495
REMARK  207  A    between atoms: _494  and  _497
REMARK  208  A    between atoms: _497  and  _498
REMARK  209  A    between atoms: _504  and  _506
REMARK  210  A    between atoms: _506  and  _507
REMARK  211  A    between atoms: _506  and  _509
REMARK  212  A    between atoms: _509  and  _510
REMARK  213  A    between atoms: _512  and  _514
REMARK  214  A    between atoms: _514  and  _515
REMARK  215  A    between atoms: _514  and  _517
REMARK  216  A    between atoms: _517  and  _518
REMARK  217  A    between atoms: _521  and  _523
REMARK  218  A    between atoms: _523  and  _524
REMARK  219  A    between atoms: _523  and  _526
REMARK  220  A    between atoms: _526  and  _527
REMARK  221  A    between atoms: _533  and  _535
REMARK  222  A    between atoms: _535  and  _536
REMARK  223  A    between atoms: _538  and  _540
REMARK  224  A    between atoms: _540  and  _541
REMARK  225  A    between atoms: _540  and  _543
REMARK  226  A    between atoms: _543  and  _544
REMARK  227  A    between atoms: _547  and  _549
REMARK  228  A    between atoms: _549  and  _550
REMARK  229  A    between atoms: _552  and  _554
REMARK  230  A    between atoms: _554  and  _555
REMARK  231  A    between atoms: _554  and  _557
REMARK  232  A    between atoms: _557  and  _558
REMARK  233  A    between atoms: _563  and  _564
REMARK  234  A    between atoms: _566  and  _568
REMARK  235  A    between atoms: _568  and  _569
REMARK  236  A    between atoms: _568  and  _571
REMARK  237  A    between atoms: _571  and  _572
REMARK  238  A    between atoms: _575  and  _577
REMARK  239  A    between atoms: _577  and  _578
REMARK  240  A    between atoms: _577  and  _580
REMARK  241  A    between atoms: _580  and  _581
REMARK  242  A    between atoms: _584  and  _586
REMARK  243  A    between atoms: _586  and  _587
REMARK  244  A    between atoms: _586  and  _589
REMARK  245  A    between atoms: _592  and  _594
REMARK  246  A    between atoms: _594  and  _595
REMARK  247  A    between atoms: _594  and  _597
REMARK  248  A    between atoms: _597  and  _598
REMARK  249  A    between atoms: _598  and  _599
REMARK  250  A    between atoms: _605  and  _606
REMARK  251  A    between atoms: _611  and  _613
REMARK  252  A    between atoms: _613  and  _614
REMARK  253  A    between atoms: _613  and  _616
REMARK  254  A    between atoms: _616  and  _617
REMARK  255  A    between atoms: _617  and  _618
REMARK                            x       y       z     vdW  Elec       q    Type
REMARK                         _______ _______ _______ _____ _____    ______ ____
ROOT
ATOM      1  O   HOH     1      21.485  10.833  12.836  0.00  0.00    +0.000 OA
ENDROOT
TORSDOF 0
REMARK  Name = ../refined-set-2016/2web/2web_pocket.pdb
REMARK  255 active torsions:
REMARK  status: ('A' for Active; 'I' for Inactive)
REMARK    1  A    between atoms: _1  and  _3
REMARK    2  A    between atoms: _3  and  _4
REMARK    3  A    between atoms: _3  and  _6
REMARK    4  A    between atoms: _6  and  _7
REMARK    5  A    between atoms: _10  and  _12
REMARK    6  A    between atoms: _12  and  _13
REMARK    7  A    between atoms: _12  and  _15
REMARK    8  A    between atoms: _15  and  _16
REMARK    9  A    between atoms: _16  and  _17
REMARK   10  A    between atoms: _20  and  _22
REMARK   11  A    between atoms: _22  and  _23
REMARK   12  A    between atoms: _22  and  _25
REMARK   13  A    between atoms: _25  and  _26
REMARK   14  A    between atoms: _26  and  _27
REMARK   15  A    between atoms: _30  and  _32
REMARK   16  A    between atoms: _32  and  _33
REMARK   17  A    between atoms: _32  and  _35
REMARK   18  A    between atoms: _35  and  _36
REMARK   19  A    between atoms: _41  and  _42
REMARK   20  A    between atoms: _44  and  _46
REMARK   21  A    between atoms: _46  and  _47
REMARK   22  A    between atoms: _46  and  _49
REMARK   23  A    between atoms: _49  and  _50
REMARK   24  A    between atoms: _55  and  _57
REMARK   25  A    between atoms: _57  and  _58
REMARK   26  A    between atoms: _57  and  _60
REMARK   27  A    between atoms: _60  and  _61
REMARK   28  A    between atoms: _67  and  _69
REMARK   29  A    between atoms: _69  and  _70
REMARK   30  A    between atoms: _69  and  _72
REMARK   31  A    between atoms: _72  and  _73
REMARK   32  A    between atoms: _76  and  _78
REMARK   33  A    between atoms: _78  and  _79
REMARK   34  A    between atoms: _78  and  _81
REMARK   35  A    between atoms: _81  and  _82
REMARK   36  A    between atoms: _85  and  _87
REMARK   37  A    between atoms: _87  and  _88
REMARK   38  A    between atoms: _90  and  _92
REMARK   39  A    between atoms: _92  and  _93
REMARK   40  A    between atoms: _92  and  _95
REMARK   41  A    between atoms: _95  and  _96
REMARK   42  A    between atoms: _98  and  _100
REMARK   43  A    between atoms: _100  and  _101
REMARK   44  A    between atoms: _104  and  _106
REMARK   45  A    between atoms: _106  and  _107
REMARK   46  A    between atoms: _106  and  _109
REMARK   47  A    between atoms: _109  and  _110
REMARK   48  A    between atoms: _113  and  _115
REMARK   49  A    between atoms: _115  and  _116
REMARK   50  A    between atoms: _115  and  _118
REMARK   51  A    between atoms: _118  and  _119
REMARK   52  A    between atoms: _129  and  _131
REMARK   53  A    between atoms: _131  and  _132
REMARK   54  A    between atoms: _131  and  _134
REMARK   55  A    between atoms: _134  and  _135
REMARK   56  A    between atoms: _138  and  _140
REMARK   57  A    between atoms: _140  and  _141
REMARK   58  A    between atoms: _140  and  _143
REMARK   59  A    between atoms: _143  and  _144
REMARK   60  A    between atoms: _146  and  _148
REMARK   61  A    between atoms: _148  and  _149
REMARK   62  A    between atoms: _148  and  _151
REMARK   63  A    between atoms: _151  and  _152
REMARK   64  A    between atoms: _157  and  _158
REMARK   65  A    between atoms: _160  and  _162
REMARK   66  A    between atoms: _162  and  _163
REMARK   67  A    between atoms: _165  and  _167
REMARK   68  A    between atoms: _167  and  _168
REMARK   69  A    between atoms: _167  and  _170
REMARK   70  A    between atoms: _170  and  _171
REMARK   71  A    between atoms: _174  and  _176
REMARK   72  A    between atoms: _176  and  _177
REMARK   73  A    between atoms: _179  and  _181
REMARK   74  A    between atoms: _181  and  _182
REMARK   75  A    between atoms: _181  and  _184
REMARK   76  A    between atoms: _184  and  _185
REMARK   77  A    between atoms: _187  and  _189
REMARK   78  A    between atoms: _189  and  _190
REMARK   79  A    between atoms: _189  and  _192
REMARK   80  A    between atoms: _192  and  _193
REMARK   81  A    between atoms: _195  and  _197
REMARK   82  A    between atoms: _197  and  _198
REMARK   83  A    between atoms: _197  and  _200
REMARK   84  A    between atoms: _200  and  _201
REMARK   85  A    between atoms: _203  and  _205
REMARK   86  A    between atoms: _205  and  _206
REMARK   87  A    between atoms: _209  and  _211
REMARK   88  A    between atoms: _211  and  _212
REMARK   89  A    between atoms: _211  and  _214
REMARK   90  A    between atoms: _214  and  _215
REMARK   91  A    between atoms: _215  and  _216
REMARK   92  A    between atoms: _221  and  _223
REMARK   93  A    between atoms: _223  and  _224
REMARK   94  A    between atoms: _223  and  _226
REMARK   95  A    between atoms: _226  and  _227
REMARK   96  A    between atoms: _233  and  _235
REMARK   97  A    between atoms: _235  and  _236
REMARK   98  A    between atoms: _235  and  _238
REMARK   99  A    between atoms: _238  and  _239
REMARK  100  A    between atoms: _239  and  _240
REMARK  101  A    between atoms: _245  and  _247
REMARK  102  A    between atoms: _247  and  _248
REMARK  103  A    between atoms: _247  and  _250
REMARK  104  A    between atoms: _250  and  _251
REMARK  105  A    between atoms: _251  and  _252
REMARK  106  A    between atoms: _257  and  _259
REMARK  107  A    between atoms: _259  and  _260
REMARK  108  A    between atoms: _259  and  _262
REMARK  109  A    between atoms: _262  and  _263
REMARK  110  A    between atoms: _266  and  _268
REMARK  111  A    between atoms: _268  and  _269
REMARK  112  A    between atoms: _268  and  _271
REMARK  113  A    between atoms: _271  and  _272
REMARK  114  A    between atoms: _275  and  _277
REMARK  115  A    between atoms: _277  and  _278
REMARK  116  A    between atoms: _277  and  _280
REMARK  117  A    between atoms: _280  and  _281
REMARK  118  A    between atoms: _286  and  _288
REMARK  119  A    between atoms: _288  and  _289
REMARK  120  A    between atoms: _288  and  _291
REMARK  121  A    between atoms: _291  and  _292
REMARK  122  A    between atoms: _297  and  _299
REMARK  123  A    between atoms: _299  and  _300
REMARK  124  A    between atoms: _302  and  _304
REMARK  125  A    between atoms: _304  and  _305
REMARK  126  A    between atoms: _304  and  _307
REMARK  127  A    between atoms: _307  and  _308
REMARK  128  A    between atoms: _311  and  _313
REMARK  129  A    between atoms: _313  and  _314
REMARK  130  A    between atoms: _316  and  _318
REMARK  131  A    between atoms: _318  and  _319
REMARK  132  A    between atoms: _318  and  _321
REMARK  133  A    between atoms: _321  and  _322
REMARK  134  A    between atoms: _325  and  _327
REMARK  135  A    between atoms: _327  and  _328
REMARK  136  A    between atoms: _331  and  _333
REMARK  137  A    between atoms: _333  and  _334
REMARK  138  A    between atoms: _333  and  _336
REMARK  139  A    between atoms: _336  and  _337
REMARK  140  A    between atoms: _340  and  _342
REMARK  141  A    between atoms: _342  and  _343
REMARK  142  A    between atoms: _342  and  _345
REMARK  143  A    between atoms: _345  and  _346
REMARK  144  A    between atoms: _349  and  _351
REMARK  145  A    between atoms: _351  and  _352
REMARK  146  A    between atoms: _351  and  _354
REMARK  147  A    between atoms: _354  and  _355
REMARK  148  A    between atoms: _355  and  _356
REMARK  149  A    between atoms: _361  and  _363
REMARK  150  A    between atoms: _363  and  _364
REMARK  151  A    between atoms: _363  and  _366
REMARK  152  A    between atoms: _366  and  _367
REMARK  153  A    between atoms: _373  and  _375
REMARK  154  A    between atoms: _375  and  _376
REMARK  155  A    between atoms: _375  and  _378
REMARK  156  A    between atoms: _378  and  _379
REMARK  157  A    between atoms: _382  and  _384
REMARK  158  A    between atoms: _384  and  _385
REMARK  159  A    between atoms: _388  and  _390
REMARK  160  A    between atoms: _390  and  _391
REMARK  161  A    between atoms: _390  and  _393
REMARK  162  A    between atoms: _393  and  _394
REMARK  163  A    between atoms: _397  and  _399
REMARK  164  A    between atoms: _399  and  _400
REMARK  165  A    between atoms: _399  and  _402
REMARK  166  A    between atoms: _402  and  _403
REMARK  167  A    between atoms: _406  and  _408
REMARK  168  A    between atoms: _408  and  _409
REMARK  169  A    between atoms: _411  and  _413
REMARK  170  A    between atoms: _413  and  _414
REMARK  171  A    between atoms: _413  and  _416
REMARK  172  A    between atoms: _416  and  _417
REMARK  173  A    between atoms: _420  and  _422
REMARK  174  A    between atoms: _422  and  _423
REMARK  175  A    between atoms: _422  and  _425
REMARK  176  A    between atoms: _425  and  _426
REMARK  177  A    between atoms: _429  and  _431
REMARK  178  A    between atoms: _431  and  _432
REMARK  179  A    between atoms: _431  and  _434
REMARK  180  A    between atoms: _434  and  _435
REMARK  181  A    between atoms: _438  and  _440
REMARK  182  A    between atoms: _440  and  _441
REMARK  183  A    between atoms: _440  and  _443
REMARK  184  A    between atoms: _443  and  _444
REMARK  185  A    between atoms: _447  and  _449
REMARK  186  A    between atoms: _449  and  _450
REMARK  187  A    between atoms: _449  and  _452
REMARK  188  A    between atoms: _452  and  _453
REMARK  189  A    between atoms: _456  and  _458
REMARK  190  A    between atoms: _458  and  _459
REMARK  191  A    between atoms: _458  and  _461
REMARK  192  A    between atoms: _461  and  _462
REMARK  193  A    between atoms: _464  and  _466
REMARK  194  A    between atoms: _466  and  _467
REMARK  195  A    between atoms: _466  and  _469
REMARK  196  A    between atoms: _469  and  _470
REMARK  197  A    between atoms: _475  and  _477
REMARK  198  A    between atoms: _477  and  _478
REMARK  199  A    between atoms: _477  and  _480
REMARK  200  A    between atoms: _480  and  _481
REMARK  201  A    between atoms: _483  and  _485
REMARK  202  A    between atoms: _485  and  _486
REMARK  203  A    between atoms: _485  and  _488
REMARK  204  A    between atoms: _488  and  _489
REMARK  205  A    between atoms: _492  and  _494
REMARK  206  A    between atoms: _494  and  _495
REMARK  207  A    between atoms: _494  and  _497
REMARK  208  A    between atoms: _497  and  _498
REMARK  209  A    between atoms: _504  and  _506
REMARK  210  A    between atoms: _506  and  _507
REMARK  211  A    between atoms: _506  and  _509
REMARK  212  A    between atoms: _509  and  _510
REMARK  213  A    between atoms: _512  and  _514
REMARK  214  A    between atoms: _514  and  _515
REMARK  215  A    between atoms: _514  and  _517
REMARK  216  A    between atoms: _517  and  _518
REMARK  217  A    between atoms: _521  and  _523
REMARK  218  A    between atoms: _523  and  _524
REMARK  219  A    between atoms: _523  and  _526
REMARK  220  A    between atoms: _526  and  _527
REMARK  221  A    between atoms: _533  and  _535
REMARK  222  A    between atoms: _535  and  _536
REMARK  223  A    between atoms: _538  and  _540
REMARK  224  A    between atoms: _540  and  _541
REMARK  225  A    between atoms: _540  and  _543
REMARK  226  A    between atoms: _543  and  _544
REMARK  227  A    between atoms: _547  and  _549
REMARK  228  A    between atoms: _549  and  _550
REMARK  229  A    between atoms: _552  and  _554
REMARK  230  A    between atoms: _554  and  _555
REMARK  231  A    between atoms: _554  and  _557
REMARK  232  A    between atoms: _557  and  _558
REMARK  233  A    between atoms: _563  and  _564
REMARK  234  A    between atoms: _566  and  _568
REMARK  235  A    between atoms: _568  and  _569
REMARK  236  A    between atoms: _568  and  _571
REMARK  237  A    between atoms: _571  and  _572
REMARK  238  A    between atoms: _575  and  _577
REMARK  239  A    between atoms: _577  and  _578
REMARK  240  A    between atoms: _577  and  _580
REMARK  241  A    between atoms: _580  and  _581
REMARK  242  A    between atoms: _584  and  _586
REMARK  243  A    between atoms: _586  and  _587
REMARK  244  A    between atoms: _586  and  _589
REMARK  245  A    between atoms: _592  and  _594
REMARK  246  A    between atoms: _594  and  _595
REMARK  247  A    between atoms: _594  and  _597
REMARK  248  A    between atoms: _597  and  _598
REMARK  249  A    between atoms: _598  and  _599
REMARK  250  A    between atoms: _605  and  _606
REMARK  251  A    between atoms: _611  and  _613
REMARK  252  A    between atoms: _613  and  _614
REMARK  253  A    between atoms: _613  and  _616
REMARK  254  A    between atoms: _616  and  _617
REMARK  255  A    between atoms: _617  and  _618
REMARK                            x       y       z     vdW  Elec       q    Type
REMARK                         _______ _______ _______ _____ _____    ______ ____
ROOT
ATOM      1  O   HOH     1      27.206  18.256  28.898  0.00  0.00    +0.000 OA
ENDROOT
TORSDOF 0
REMARK  Name = ../refined-set-2016/2web/2web_pocket.pdb
REMARK  255 active torsions:
REMARK  status: ('A' for Active; 'I' for Inactive)
REMARK    1  A    between atoms: _1  and  _3
REMARK    2  A    between atoms: _3  and  _4
REMARK    3  A    between atoms: _3  and  _6
REMARK    4  A    between atoms: _6  and  _7
REMARK    5  A    between atoms: _10  and  _12
REMARK    6  A    between atoms: _12  and  _13
REMARK    7  A    between atoms: _12  and  _15
REMARK    8  A    between atoms: _15  and  _16
REMARK    9  A    between atoms: _16  and  _17
REMARK   10  A    between atoms: _20  and  _22
REMARK   11  A    between atoms: _22  and  _23
REMARK   12  A    between atoms: _22  and  _25
REMARK   13  A    between atoms: _25  and  _26
REMARK   14  A    between atoms: _26  and  _27
REMARK   15  A    between atoms: _30  and  _32
REMARK   16  A    between atoms: _32  and  _33
REMARK   17  A    between atoms: _32  and  _35
REMARK   18  A    between atoms: _35  and  _36
REMARK   19  A    between atoms: _41  and  _42
REMARK   20  A    between atoms: _44  and  _46
REMARK   21  A    between atoms: _46  and  _47
REMARK   22  A    between atoms: _46  and  _49
REMARK   23  A    between atoms: _49  and  _50
REMARK   24  A    between atoms: _55  and  _57
REMARK   25  A    between atoms: _57  and  _58
REMARK   26  A    between atoms: _57  and  _60
REMARK   27  A    between atoms: _60  and  _61
REMARK   28  A    between atoms: _67  and  _69
REMARK   29  A    between atoms: _69  and  _70
REMARK   30  A    between atoms: _69  and  _72
REMARK   31  A    between atoms: _72  and  _73
REMARK   32  A    between atoms: _76  and  _78
REMARK   33  A    between atoms: _78  and  _79
REMARK   34  A    between atoms: _78  and  _81
REMARK   35  A    between atoms: _81  and  _82
REMARK   36  A    between atoms: _85  and  _87
REMARK   37  A    between atoms: _87  and  _88
REMARK   38  A    between atoms: _90  and  _92
REMARK   39  A    between atoms: _92  and  _93
REMARK   40  A    between atoms: _92  and  _95
REMARK   41  A    between atoms: _95  and  _96
REMARK   42  A    between atoms: _98  and  _100
REMARK   43  A    between atoms: _100  and  _101
REMARK   44  A    between atoms: _104  and  _106
REMARK   45  A    between atoms: _106  and  _107
REMARK   46  A    between atoms: _106  and  _109
REMARK   47  A    between atoms: _109  and  _110
REMARK   48  A    between atoms: _113  and  _115
REMARK   49  A    between atoms: _115  and  _116
REMARK   50  A    between atoms: _115  and  _118
REMARK   51  A    between atoms: _118  and  _119
REMARK   52  A    between atoms: _129  and  _131
REMARK   53  A    between atoms: _131  and  _132
REMARK   54  A    between atoms: _131  and  _134
REMARK   55  A    between atoms: _134  and  _135
REMARK   56  A    between atoms: _138  and  _140
REMARK   57  A    between atoms: _140  and  _141
REMARK   58  A    between atoms: _140  and  _143
REMARK   59  A    between atoms: _143  and  _144
REMARK   60  A    between atoms: _146  and  _148
REMARK   61  A    between atoms: _148  and  _149
REMARK   62  A    between atoms: _148  and  _151
REMARK   63  A    between atoms: _151  and  _152
REMARK   64  A    between atoms: _157  and  _158
REMARK   65  A    between atoms: _160  and  _162
REMARK   66  A    between atoms: _162  and  _163
REMARK   67  A    between atoms: _165  and  _167
REMARK   68  A    between atoms: _167  and  _168
REMARK   69  A    between atoms: _167  and  _170
REMARK   70  A    between atoms: _170  and  _171
REMARK   71  A    between atoms: _174  and  _176
REMARK   72  A    between atoms: _176  and  _177
REMARK   73  A    between atoms: _179  and  _181
REMARK   74  A    between atoms: _181  and  _182
REMARK   75  A    between atoms: _181  and  _184
REMARK   76  A    between atoms: _184  and  _185
REMARK   77  A    between atoms: _187  and  _189
REMARK   78  A    between atoms: _189  and  _190
REMARK   79  A    between atoms: _189  and  _192
REMARK   80  A    between atoms: _192  and  _193
REMARK   81  A    between atoms: _195  and  _197
REMARK   82  A    between atoms: _197  and  _198
REMARK   83  A    between atoms: _197  and  _200
REMARK   84  A    between atoms: _200  and  _201
REMARK   85  A    between atoms: _203  and  _205
REMARK   86  A    between atoms: _205  and  _206
REMARK   87  A    between atoms: _209  and  _211
REMARK   88  A    between atoms: _211  and  _212
REMARK   89  A    between atoms: _211  and  _214
REMARK   90  A    between atoms: _214  and  _215
REMARK   91  A    between atoms: _215  and  _216
REMARK   92  A    between atoms: _221  and  _223
REMARK   93  A    between atoms: _223  and  _224
REMARK   94  A    between atoms: _223  and  _226
REMARK   95  A    between atoms: _226  and  _227
REMARK   96  A    between atoms: _233  and  _235
REMARK   97  A    between atoms: _235  and  _236
REMARK   98  A    between atoms: _235  and  _238
REMARK   99  A    between atoms: _238  and  _239
REMARK  100  A    between atoms: _239  and  _240
REMARK  101  A    between atoms: _245  and  _247
REMARK  102  A    between atoms: _247  and  _248
REMARK  103  A    between atoms: _247  and  _250
REMARK  104  A    between atoms: _250  and  _251
REMARK  105  A    between atoms: _251  and  _252
REMARK  106  A    between atoms: _257  and  _259
REMARK  107  A    between atoms: _259  and  _260
REMARK  108  A    between atoms: _259  and  _262
REMARK  109  A    between atoms: _262  and  _263
REMARK  110  A    between atoms: _266  and  _268
REMARK  111  A    between atoms: _268  and  _269
REMARK  112  A    between atoms: _268  and  _271
REMARK  113  A    between atoms: _271  and  _272
REMARK  114  A    between atoms: _275  and  _277
REMARK  115  A    between atoms: _277  and  _278
REMARK  116  A    between atoms: _277  and  _280
REMARK  117  A    between atoms: _280  and  _281
REMARK  118  A    between atoms: _286  and  _288
REMARK  119  A    between atoms: _288  and  _289
REMARK  120  A    between atoms: _288  and  _291
REMARK  121  A    between atoms: _291  and  _292
REMARK  122  A    between atoms: _297  and  _299
REMARK  123  A    between atoms: _299  and  _300
REMARK  124  A    between atoms: _302  and  _304
REMARK  125  A    between atoms: _304  and  _305
REMARK  126  A    between atoms: _304  and  _307
REMARK  127  A    between atoms: _307  and  _308
REMARK  128  A    between atoms: _311  and  _313
REMARK  129  A    between atoms: _313  and  _314
REMARK  130  A    between atoms: _316  and  _318
REMARK  131  A    between atoms: _318  and  _319
REMARK  132  A    between atoms: _318  and  _321
REMARK  133  A    between atoms: _321  and  _322
REMARK  134  A    between atoms: _325  and  _327
REMARK  135  A    between atoms: _327  and  _328
REMARK  136  A    between atoms: _331  and  _333
REMARK  137  A    between atoms: _333  and  _334
REMARK  138  A    between atoms: _333  and  _336
REMARK  139  A    between atoms: _336  and  _337
REMARK  140  A    between atoms: _340  and  _342
REMARK  141  A    between atoms: _342  and  _343
REMARK  142  A    between atoms: _342  and  _345
REMARK  143  A    between atoms: _345  and  _346
REMARK  144  A    between atoms: _349  and  _351
REMARK  145  A    between atoms: _351  and  _352
REMARK  146  A    between atoms: _351  and  _354
REMARK  147  A    between atoms: _354  and  _355
REMARK  148  A    between atoms: _355  and  _356
REMARK  149  A    between atoms: _361  and  _363
REMARK  150  A    between atoms: _363  and  _364
REMARK  151  A    between atoms: _363  and  _366
REMARK  152  A    between atoms: _366  and  _367
REMARK  153  A    between atoms: _373  and  _375
REMARK  154  A    between atoms: _375  and  _376
REMARK  155  A    between atoms: _375  and  _378
REMARK  156  A    between atoms: _378  and  _379
REMARK  157  A    between atoms: _382  and  _384
REMARK  158  A    between atoms: _384  and  _385
REMARK  159  A    between atoms: _388  and  _390
REMARK  160  A    between atoms: _390  and  _391
REMARK  161  A    between atoms: _390  and  _393
REMARK  162  A    between atoms: _393  and  _394
REMARK  163  A    between atoms: _397  and  _399
REMARK  164  A    between atoms: _399  and  _400
REMARK  165  A    between atoms: _399  and  _402
REMARK  166  A    between atoms: _402  and  _403
REMARK  167  A    between atoms: _406  and  _408
REMARK  168  A    between atoms: _408  and  _409
REMARK  169  A    between atoms: _411  and  _413
REMARK  170  A    between atoms: _413  and  _414
REMARK  171  A    between atoms: _413  and  _416
REMARK  172  A    between atoms: _416  and  _417
REMARK  173  A    between atoms: _420  and  _422
REMARK  174  A    between atoms: _422  and  _423
REMARK  175  A    between atoms: _422  and  _425
REMARK  176  A    between atoms: _425  and  _426
REMARK  177  A    between atoms: _429  and  _431
REMARK  178  A    between atoms: _431  and  _432
REMARK  179  A    between atoms: _431  and  _434
REMARK  180  A    between atoms: _434  and  _435
REMARK  181  A    between atoms: _438  and  _440
REMARK  182  A    between atoms: _440  and  _441
REMARK  183  A    between atoms: _440  and  _443
REMARK  184  A    between atoms: _443  and  _444
REMARK  185  A    between atoms: _447  and  _449
REMARK  186  A    between atoms: _449  and  _450
REMARK  187  A    between atoms: _449  and  _452
REMARK  188  A    between atoms: _452  and  _453
REMARK  189  A    between atoms: _456  and  _458
REMARK  190  A    between atoms: _458  and  _459
REMARK  191  A    between atoms: _458  and  _461
REMARK  192  A    between atoms: _461  and  _462
REMARK  193  A    between atoms: _464  and  _466
REMARK  194  A    between atoms: _466  and  _467
REMARK  195  A    between atoms: _466  and  _469
REMARK  196  A    between atoms: _469  and  _470
REMARK  197  A    between atoms: _475  and  _477
REMARK  198  A    between atoms: _477  and  _478
REMARK  199  A    between atoms: _477  and  _480
REMARK  200  A    between atoms: _480  and  _481
REMARK  201  A    between atoms: _483  and  _485
REMARK  202  A    between atoms: _485  and  _486
REMARK  203  A    between atoms: _485  and  _488
REMARK  204  A    between atoms: _488  and  _489
REMARK  205  A    between atoms: _492  and  _494
REMARK  206  A    between atoms: _494  and  _495
REMARK  207  A    between atoms: _494  and  _497
REMARK  208  A    between atoms: _497  and  _498
REMARK  209  A    between atoms: _504  and  _506
REMARK  210  A    between atoms: _506  and  _507
REMARK  211  A    between atoms: _506  and  _509
REMARK  212  A    between atoms: _509  and  _510
REMARK  213  A    between atoms: _512  and  _514
REMARK  214  A    between atoms: _514  and  _515
REMARK  215  A    between atoms: _514  and  _517
REMARK  216  A    between atoms: _517  and  _518
REMARK  217  A    between atoms: _521  and  _523
REMARK  218  A    between atoms: _523  and  _524
REMARK  219  A    between atoms: _523  and  _526
REMARK  220  A    between atoms: _526  and  _527
REMARK  221  A    between atoms: _533  and  _535
REMARK  222  A    between atoms: _535  and  _536
REMARK  223  A    between atoms: _538  and  _540
REMARK  224  A    between atoms: _540  and  _541
REMARK  225  A    between atoms: _540  and  _543
REMARK  226  A    between atoms: _543  and  _544
REMARK  227  A    between atoms: _547  and  _549
REMARK  228  A    between atoms: _549  and  _550
REMARK  229  A    between atoms: _552  and  _554
REMARK  230  A    between atoms: _554  and  _555
REMARK  231  A    between atoms: _554  and  _557
REMARK  232  A    between atoms: _557  and  _558
REMARK  233  A    between atoms: _563  and  _564
REMARK  234  A    between atoms: _566  and  _568
REMARK  235  A    between atoms: _568  and  _569
REMARK  236  A    between atoms: _568  and  _571
REMARK  237  A    between atoms: _571  and  _572
REMARK  238  A    between atoms: _575  and  _577
REMARK  239  A    between atoms: _577  and  _578
REMARK  240  A    between atoms: _577  and  _580
REMARK  241  A    between atoms: _580  and  _581
REMARK  242  A    between atoms: _584  and  _586
REMARK  243  A    between atoms: _586  and  _587
REMARK  244  A    between atoms: _586  and  _589
REMARK  245  A    between atoms: _592  and  _594
REMARK  246  A    between atoms: _594  and  _595
REMARK  247  A    between atoms: _594  and  _597
REMARK  248  A    between atoms: _597  and  _598
REMARK  249  A    between atoms: _598  and  _599
REMARK  250  A    between atoms: _605  and  _606
REMARK  251  A    between atoms: _611  and  _613
REMARK  252  A    between atoms: _613  and  _614
REMARK  253  A    between atoms: _613  and  _616
REMARK  254  A    between atoms: _616  and  _617
REMARK  255  A    between atoms: _617  and  _618
REMARK                            x       y       z     vdW  Elec       q    Type
REMARK                         _______ _______ _______ _____ _____    ______ ____
ROOT
ATOM      1  O   HOH     1      30.504  11.448  19.541  0.00  0.00    +0.000 OA
ENDROOT
TORSDOF 0
REMARK  Name = ../refined-set-2016/2web/2web_pocket.pdb
REMARK  255 active torsions:
REMARK  status: ('A' for Active; 'I' for Inactive)
REMARK    1  A    between atoms: _1  and  _3
REMARK    2  A    between atoms: _3  and  _4
REMARK    3  A    between atoms: _3  and  _6
REMARK    4  A    between atoms: _6  and  _7
REMARK    5  A    between atoms: _10  and  _12
REMARK    6  A    between atoms: _12  and  _13
REMARK    7  A    between atoms: _12  and  _15
REMARK    8  A    between atoms: _15  and  _16
REMARK    9  A    between atoms: _16  and  _17
REMARK   10  A    between atoms: _20  and  _22
REMARK   11  A    between atoms: _22  and  _23
REMARK   12  A    between atoms: _22  and  _25
REMARK   13  A    between atoms: _25  and  _26
REMARK   14  A    between atoms: _26  and  _27
REMARK   15  A    between atoms: _30  and  _32
REMARK   16  A    between atoms: _32  and  _33
REMARK   17  A    between atoms: _32  and  _35
REMARK   18  A    between atoms: _35  and  _36
REMARK   19  A    between atoms: _41  and  _42
REMARK   20  A    between atoms: _44  and  _46
REMARK   21  A    between atoms: _46  and  _47
REMARK   22  A    between atoms: _46  and  _49
REMARK   23  A    between atoms: _49  and  _50
REMARK   24  A    between atoms: _55  and  _57
REMARK   25  A    between atoms: _57  and  _58
REMARK   26  A    between atoms: _57  and  _60
REMARK   27  A    between atoms: _60  and  _61
REMARK   28  A    between atoms: _67  and  _69
REMARK   29  A    between atoms: _69  and  _70
REMARK   30  A    between atoms: _69  and  _72
REMARK   31  A    between atoms: _72  and  _73
REMARK   32  A    between atoms: _76  and  _78
REMARK   33  A    between atoms: _78  and  _79
REMARK   34  A    between atoms: _78  and  _81
REMARK   35  A    between atoms: _81  and  _82
REMARK   36  A    between atoms: _85  and  _87
REMARK   37  A    between atoms: _87  and  _88
REMARK   38  A    between atoms: _90  and  _92
REMARK   39  A    between atoms: _92  and  _93
REMARK   40  A    between atoms: _92  and  _95
REMARK   41  A    between atoms: _95  and  _96
REMARK   42  A    between atoms: _98  and  _100
REMARK   43  A    between atoms: _100  and  _101
REMARK   44  A    between atoms: _104  and  _106
REMARK   45  A    between atoms: _106  and  _107
REMARK   46  A    between atoms: _106  and  _109
REMARK   47  A    between atoms: _109  and  _110
REMARK   48  A    between atoms: _113  and  _115
REMARK   49  A    between atoms: _115  and  _116
REMARK   50  A    between atoms: _115  and  _118
REMARK   51  A    between atoms: _118  and  _119
REMARK   52  A    between atoms: _129  and  _131
REMARK   53  A    between atoms: _131  and  _132
REMARK   54  A    between atoms: _131  and  _134
REMARK   55  A    between atoms: _134  and  _135
REMARK   56  A    between atoms: _138  and  _140
REMARK   57  A    between atoms: _140  and  _141
REMARK   58  A    between atoms: _140  and  _143
REMARK   59  A    between atoms: _143  and  _144
REMARK   60  A    between atoms: _146  and  _148
REMARK   61  A    between atoms: _148  and  _149
REMARK   62  A    between atoms: _148  and  _151
REMARK   63  A    between atoms: _151  and  _152
REMARK   64  A    between atoms: _157  and  _158
REMARK   65  A    between atoms: _160  and  _162
REMARK   66  A    between atoms: _162  and  _163
REMARK   67  A    between atoms: _165  and  _167
REMARK   68  A    between atoms: _167  and  _168
REMARK   69  A    between atoms: _167  and  _170
REMARK   70  A    between atoms: _170  and  _171
REMARK   71  A    between atoms: _174  and  _176
REMARK   72  A    between atoms: _176  and  _177
REMARK   73  A    between atoms: _179  and  _181
REMARK   74  A    between atoms: _181  and  _182
REMARK   75  A    between atoms: _181  and  _184
REMARK   76  A    between atoms: _184  and  _185
REMARK   77  A    between atoms: _187  and  _189
REMARK   78  A    between atoms: _189  and  _190
REMARK   79  A    between atoms: _189  and  _192
REMARK   80  A    between atoms: _192  and  _193
REMARK   81  A    between atoms: _195  and  _197
REMARK   82  A    between atoms: _197  and  _198
REMARK   83  A    between atoms: _197  and  _200
REMARK   84  A    between atoms: _200  and  _201
REMARK   85  A    between atoms: _203  and  _205
REMARK   86  A    between atoms: _205  and  _206
REMARK   87  A    between atoms: _209  and  _211
REMARK   88  A    between atoms: _211  and  _212
REMARK   89  A    between atoms: _211  and  _214
REMARK   90  A    between atoms: _214  and  _215
REMARK   91  A    between atoms: _215  and  _216
REMARK   92  A    between atoms: _221  and  _223
REMARK   93  A    between atoms: _223  and  _224
REMARK   94  A    between atoms: _223  and  _226
REMARK   95  A    between atoms: _226  and  _227
REMARK   96  A    between atoms: _233  and  _235
REMARK   97  A    between atoms: _235  and  _236
REMARK   98  A    between atoms: _235  and  _238
REMARK   99  A    between atoms: _238  and  _239
REMARK  100  A    between atoms: _239  and  _240
REMARK  101  A    between atoms: _245  and  _247
REMARK  102  A    between atoms: _247  and  _248
REMARK  103  A    between atoms: _247  and  _250
REMARK  104  A    between atoms: _250  and  _251
REMARK  105  A    between atoms: _251  and  _252
REMARK  106  A    between atoms: _257  and  _259
REMARK  107  A    between atoms: _259  and  _260
REMARK  108  A    between atoms: _259  and  _262
REMARK  109  A    between atoms: _262  and  _263
REMARK  110  A    between atoms: _266  and  _268
REMARK  111  A    between atoms: _268  and  _269
REMARK  112  A    between atoms: _268  and  _271
REMARK  113  A    between atoms: _271  and  _272
REMARK  114  A    between atoms: _275  and  _277
REMARK  115  A    between atoms: _277  and  _278
REMARK  116  A    between atoms: _277  and  _280
REMARK  117  A    between atoms: _280  and  _281
REMARK  118  A    between atoms: _286  and  _288
REMARK  119  A    between atoms: _288  and  _289
REMARK  120  A    between atoms: _288  and  _291
REMARK  121  A    between atoms: _291  and  _292
REMARK  122  A    between atoms: _297  and  _299
REMARK  123  A    between atoms: _299  and  _300
REMARK  124  A    between atoms: _302  and  _304
REMARK  125  A    between atoms: _304  and  _305
REMARK  126  A    between atoms: _304  and  _307
REMARK  127  A    between atoms: _307  and  _308
REMARK  128  A    between atoms: _311  and  _313
REMARK  129  A    between atoms: _313  and  _314
REMARK  130  A    between atoms: _316  and  _318
REMARK  131  A    between atoms: _318  and  _319
REMARK  132  A    between atoms: _318  and  _321
REMARK  133  A    between atoms: _321  and  _322
REMARK  134  A    between atoms: _325  and  _327
REMARK  135  A    between atoms: _327  and  _328
REMARK  136  A    between atoms: _331  and  _333
REMARK  137  A    between atoms: _333  and  _334
REMARK  138  A    between atoms: _333  and  _336
REMARK  139  A    between atoms: _336  and  _337
REMARK  140  A    between atoms: _340  and  _342
REMARK  141  A    between atoms: _342  and  _343
REMARK  142  A    between atoms: _342  and  _345
REMARK  143  A    between atoms: _345  and  _346
REMARK  144  A    between atoms: _349  and  _351
REMARK  145  A    between atoms: _351  and  _352
REMARK  146  A    between atoms: _351  and  _354
REMARK  147  A    between atoms: _354  and  _355
REMARK  148  A    between atoms: _355  and  _356
REMARK  149  A    between atoms: _361  and  _363
REMARK  150  A    between atoms: _363  and  _364
REMARK  151  A    between atoms: _363  and  _366
REMARK  152  A    between atoms: _366  and  _367
REMARK  153  A    between atoms: _373  and  _375
REMARK  154  A    between atoms: _375  and  _376
REMARK  155  A    between atoms: _375  and  _378
REMARK  156  A    between atoms: _378  and  _379
REMARK  157  A    between atoms: _382  and  _384
REMARK  158  A    between atoms: _384  and  _385
REMARK  159  A    between atoms: _388  and  _390
REMARK  160  A    between atoms: _390  and  _391
REMARK  161  A    between atoms: _390  and  _393
REMARK  162  A    between atoms: _393  and  _394
REMARK  163  A    between atoms: _397  and  _399
REMARK  164  A    between atoms: _399  and  _400
REMARK  165  A    between atoms: _399  and  _402
REMARK  166  A    between atoms: _402  and  _403
REMARK  167  A    between atoms: _406  and  _408
REMARK  168  A    between atoms: _408  and  _409
REMARK  169  A    between atoms: _411  and  _413
REMARK  170  A    between atoms: _413  and  _414
REMARK  171  A    between atoms: _413  and  _416
REMARK  172  A    between atoms: _416  and  _417
REMARK  173  A    between atoms: _420  and  _422
REMARK  174  A    between atoms: _422  and  _423
REMARK  175  A    between atoms: _422  and  _425
REMARK  176  A    between atoms: _425  and  _426
REMARK  177  A    between atoms: _429  and  _431
REMARK  178  A    between atoms: _431  and  _432
REMARK  179  A    between atoms: _431  and  _434
REMARK  180  A    between atoms: _434  and  _435
REMARK  181  A    between atoms: _438  and  _440
REMARK  182  A    between atoms: _440  and  _441
REMARK  183  A    between atoms: _440  and  _443
REMARK  184  A    between atoms: _443  and  _444
REMARK  185  A    between atoms: _447  and  _449
REMARK  186  A    between atoms: _449  and  _450
REMARK  187  A    between atoms: _449  and  _452
REMARK  188  A    between atoms: _452  and  _453
REMARK  189  A    between atoms: _456  and  _458
REMARK  190  A    between atoms: _458  and  _459
REMARK  191  A    between atoms: _458  and  _461
REMARK  192  A    between atoms: _461  and  _462
REMARK  193  A    between atoms: _464  and  _466
REMARK  194  A    between atoms: _466  and  _467
REMARK  195  A    between atoms: _466  and  _469
REMARK  196  A    between atoms: _469  and  _470
REMARK  197  A    between atoms: _475  and  _477
REMARK  198  A    between atoms: _477  and  _478
REMARK  199  A    between atoms: _477  and  _480
REMARK  200  A    between atoms: _480  and  _481
REMARK  201  A    between atoms: _483  and  _485
REMARK  202  A    between atoms: _485  and  _486
REMARK  203  A    between atoms: _485  and  _488
REMARK  204  A    between atoms: _488  and  _489
REMARK  205  A    between atoms: _492  and  _494
REMARK  206  A    between atoms: _494  and  _495
REMARK  207  A    between atoms: _494  and  _497
REMARK  208  A    between atoms: _497  and  _498
REMARK  209  A    between atoms: _504  and  _506
REMARK  210  A    between atoms: _506  and  _507
REMARK  211  A    between atoms: _506  and  _509
REMARK  212  A    between atoms: _509  and  _510
REMARK  213  A    between atoms: _512  and  _514
REMARK  214  A    between atoms: _514  and  _515
REMARK  215  A    between atoms: _514  and  _517
REMARK  216  A    between atoms: _517  and  _518
REMARK  217  A    between atoms: _521  and  _523
REMARK  218  A    between atoms: _523  and  _524
REMARK  219  A    between atoms: _523  and  _526
REMARK  220  A    between atoms: _526  and  _527
REMARK  221  A    between atoms: _533  and  _535
REMARK  222  A    between atoms: _535  and  _536
REMARK  223  A    between atoms: _538  and  _540
REMARK  224  A    between atoms: _540  and  _541
REMARK  225  A    between atoms: _540  and  _543
REMARK  226  A    between atoms: _543  and  _544
REMARK  227  A    between atoms: _547  and  _549
REMARK  228  A    between atoms: _549  and  _550
REMARK  229  A    between atoms: _552  and  _554
REMARK  230  A    between atoms: _554  and  _555
REMARK  231  A    between atoms: _554  and  _557
REMARK  232  A    between atoms: _557  and  _558
REMARK  233  A    between atoms: _563  and  _564
REMARK  234  A    between atoms: _566  and  _568
REMARK  235  A    between atoms: _568  and  _569
REMARK  236  A    between atoms: _568  and  _571
REMARK  237  A    between atoms: _571  and  _572
REMARK  238  A    between atoms: _575  and  _577
REMARK  239  A    between atoms: _577  and  _578
REMARK  240  A    between atoms: _577  and  _580
REMARK  241  A    between atoms: _580  and  _581
REMARK  242  A    between atoms: _584  and  _586
REMARK  243  A    between atoms: _586  and  _587
REMARK  244  A    between atoms: _586  and  _589
REMARK  245  A    between atoms: _592  and  _594
REMARK  246  A    between atoms: _594  and  _595
REMARK  247  A    between atoms: _594  and  _597
REMARK  248  A    between atoms: _597  and  _598
REMARK  249  A    between atoms: _598  and  _599
REMARK  250  A    between atoms: _605  and  _606
REMARK  251  A    between atoms: _611  and  _613
REMARK  252  A    between atoms: _613  and  _614
REMARK  253  A    between atoms: _613  and  _616
REMARK  254  A    between atoms: _616  and  _617
REMARK  255  A    between atoms: _617  and  _618
REMARK                            x       y       z     vdW  Elec       q    Type
REMARK                         _______ _______ _______ _____ _____    ______ ____
ROOT
ATOM      1  O   HOH     1      21.743   8.630  15.599  0.00  0.00    +0.000 OA
ENDROOT
TORSDOF 0
REMARK  Name = ../refined-set-2016/2web/2web_pocket.pdb
REMARK  255 active torsions:
REMARK  status: ('A' for Active; 'I' for Inactive)
REMARK    1  A    between atoms: _1  and  _3
REMARK    2  A    between atoms: _3  and  _4
REMARK    3  A    between atoms: _3  and  _6
REMARK    4  A    between atoms: _6  and  _7
REMARK    5  A    between atoms: _10  and  _12
REMARK    6  A    between atoms: _12  and  _13
REMARK    7  A    between atoms: _12  and  _15
REMARK    8  A    between atoms: _15  and  _16
REMARK    9  A    between atoms: _16  and  _17
REMARK   10  A    between atoms: _20  and  _22
REMARK   11  A    between atoms: _22  and  _23
REMARK   12  A    between atoms: _22  and  _25
REMARK   13  A    between atoms: _25  and  _26
REMARK   14  A    between atoms: _26  and  _27
REMARK   15  A    between atoms: _30  and  _32
REMARK   16  A    between atoms: _32  and  _33
REMARK   17  A    between atoms: _32  and  _35
REMARK   18  A    between atoms: _35  and  _36
REMARK   19  A    between atoms: _41  and  _42
REMARK   20  A    between atoms: _44  and  _46
REMARK   21  A    between atoms: _46  and  _47
REMARK   22  A    between atoms: _46  and  _49
REMARK   23  A    between atoms: _49  and  _50
REMARK   24  A    between atoms: _55  and  _57
REMARK   25  A    between atoms: _57  and  _58
REMARK   26  A    between atoms: _57  and  _60
REMARK   27  A    between atoms: _60  and  _61
REMARK   28  A    between atoms: _67  and  _69
REMARK   29  A    between atoms: _69  and  _70
REMARK   30  A    between atoms: _69  and  _72
REMARK   31  A    between atoms: _72  and  _73
REMARK   32  A    between atoms: _76  and  _78
REMARK   33  A    between atoms: _78  and  _79
REMARK   34  A    between atoms: _78  and  _81
REMARK   35  A    between atoms: _81  and  _82
REMARK   36  A    between atoms: _85  and  _87
REMARK   37  A    between atoms: _87  and  _88
REMARK   38  A    between atoms: _90  and  _92
REMARK   39  A    between atoms: _92  and  _93
REMARK   40  A    between atoms: _92  and  _95
REMARK   41  A    between atoms: _95  and  _96
REMARK   42  A    between atoms: _98  and  _100
REMARK   43  A    between atoms: _100  and  _101
REMARK   44  A    between atoms: _104  and  _106
REMARK   45  A    between atoms: _106  and  _107
REMARK   46  A    between atoms: _106  and  _109
REMARK   47  A    between atoms: _109  and  _110
REMARK   48  A    between atoms: _113  and  _115
REMARK   49  A    between atoms: _115  and  _116
REMARK   50  A    between atoms: _115  and  _118
REMARK   51  A    between atoms: _118  and  _119
REMARK   52  A    between atoms: _129  and  _131
REMARK   53  A    between atoms: _131  and  _132
REMARK   54  A    between atoms: _131  and  _134
REMARK   55  A    between atoms: _134  and  _135
REMARK   56  A    between atoms: _138  and  _140
REMARK   57  A    between atoms: _140  and  _141
REMARK   58  A    between atoms: _140  and  _143
REMARK   59  A    between atoms: _143  and  _144
REMARK   60  A    between atoms: _146  and  _148
REMARK   61  A    between atoms: _148  and  _149
REMARK   62  A    between atoms: _148  and  _151
REMARK   63  A    between atoms: _151  and  _152
REMARK   64  A    between atoms: _157  and  _158
REMARK   65  A    between atoms: _160  and  _162
REMARK   66  A    between atoms: _162  and  _163
REMARK   67  A    between atoms: _165  and  _167
REMARK   68  A    between atoms: _167  and  _168
REMARK   69  A    between atoms: _167  and  _170
REMARK   70  A    between atoms: _170  and  _171
REMARK   71  A    between atoms: _174  and  _176
REMARK   72  A    between atoms: _176  and  _177
REMARK   73  A    between atoms: _179  and  _181
REMARK   74  A    between atoms: _181  and  _182
REMARK   75  A    between atoms: _181  and  _184
REMARK   76  A    between atoms: _184  and  _185
REMARK   77  A    between atoms: _187  and  _189
REMARK   78  A    between atoms: _189  and  _190
REMARK   79  A    between atoms: _189  and  _192
REMARK   80  A    between atoms: _192  and  _193
REMARK   81  A    between atoms: _195  and  _197
REMARK   82  A    between atoms: _197  and  _198
REMARK   83  A    between atoms: _197  and  _200
REMARK   84  A    between atoms: _200  and  _201
REMARK   85  A    between atoms: _203  and  _205
REMARK   86  A    between atoms: _205  and  _206
REMARK   87  A    between atoms: _209  and  _211
REMARK   88  A    between atoms: _211  and  _212
REMARK   89  A    between atoms: _211  and  _214
REMARK   90  A    between atoms: _214  and  _215
REMARK   91  A    between atoms: _215  and  _216
REMARK   92  A    between atoms: _221  and  _223
REMARK   93  A    between atoms: _223  and  _224
REMARK   94  A    between atoms: _223  and  _226
REMARK   95  A    between atoms: _226  and  _227
REMARK   96  A    between atoms: _233  and  _235
REMARK   97  A    between atoms: _235  and  _236
REMARK   98  A    between atoms: _235  and  _238
REMARK   99  A    between atoms: _238  and  _239
REMARK  100  A    between atoms: _239  and  _240
REMARK  101  A    between atoms: _245  and  _247
REMARK  102  A    between atoms: _247  and  _248
REMARK  103  A    between atoms: _247  and  _250
REMARK  104  A    between atoms: _250  and  _251
REMARK  105  A    between atoms: _251  and  _252
REMARK  106  A    between atoms: _257  and  _259
REMARK  107  A    between atoms: _259  and  _260
REMARK  108  A    between atoms: _259  and  _262
REMARK  109  A    between atoms: _262  and  _263
REMARK  110  A    between atoms: _266  and  _268
REMARK  111  A    between atoms: _268  and  _269
REMARK  112  A    between atoms: _268  and  _271
REMARK  113  A    between atoms: _271  and  _272
REMARK  114  A    between atoms: _275  and  _277
REMARK  115  A    between atoms: _277  and  _278
REMARK  116  A    between atoms: _277  and  _280
REMARK  117  A    between atoms: _280  and  _281
REMARK  118  A    between atoms: _286  and  _288
REMARK  119  A    between atoms: _288  and  _289
REMARK  120  A    between atoms: _288  and  _291
REMARK  121  A    between atoms: _291  and  _292
REMARK  122  A    between atoms: _297  and  _299
REMARK  123  A    between atoms: _299  and  _300
REMARK  124  A    between atoms: _302  and  _304
REMARK  125  A    between atoms: _304  and  _305
REMARK  126  A    between atoms: _304  and  _307
REMARK  127  A    between atoms: _307  and  _308
REMARK  128  A    between atoms: _311  and  _313
REMARK  129  A    between atoms: _313  and  _314
REMARK  130  A    between atoms: _316  and  _318
REMARK  131  A    between atoms: _318  and  _319
REMARK  132  A    between atoms: _318  and  _321
REMARK  133  A    between atoms: _321  and  _322
REMARK  134  A    between atoms: _325  and  _327
REMARK  135  A    between atoms: _327  and  _328
REMARK  136  A    between atoms: _331  and  _333
REMARK  137  A    between atoms: _333  and  _334
REMARK  138  A    between atoms: _333  and  _336
REMARK  139  A    between atoms: _336  and  _337
REMARK  140  A    between atoms: _340  and  _342
REMARK  141  A    between atoms: _342  and  _343
REMARK  142  A    between atoms: _342  and  _345
REMARK  143  A    between atoms: _345  and  _346
REMARK  144  A    between atoms: _349  and  _351
REMARK  145  A    between atoms: _351  and  _352
REMARK  146  A    between atoms: _351  and  _354
REMARK  147  A    between atoms: _354  and  _355
REMARK  148  A    between atoms: _355  and  _356
REMARK  149  A    between atoms: _361  and  _363
REMARK  150  A    between atoms: _363  and  _364
REMARK  151  A    between atoms: _363  and  _366
REMARK  152  A    between atoms: _366  and  _367
REMARK  153  A    between atoms: _373  and  _375
REMARK  154  A    between atoms: _375  and  _376
REMARK  155  A    between atoms: _375  and  _378
REMARK  156  A    between atoms: _378  and  _379
REMARK  157  A    between atoms: _382  and  _384
REMARK  158  A    between atoms: _384  and  _385
REMARK  159  A    between atoms: _388  and  _390
REMARK  160  A    between atoms: _390  and  _391
REMARK  161  A    between atoms: _390  and  _393
REMARK  162  A    between atoms: _393  and  _394
REMARK  163  A    between atoms: _397  and  _399
REMARK  164  A    between atoms: _399  and  _400
REMARK  165  A    between atoms: _399  and  _402
REMARK  166  A    between atoms: _402  and  _403
REMARK  167  A    between atoms: _406  and  _408
REMARK  168  A    between atoms: _408  and  _409
REMARK  169  A    between atoms: _411  and  _413
REMARK  170  A    between atoms: _413  and  _414
REMARK  171  A    between atoms: _413  and  _416
REMARK  172  A    between atoms: _416  and  _417
REMARK  173  A    between atoms: _420  and  _422
REMARK  174  A    between atoms: _422  and  _423
REMARK  175  A    between atoms: _422  and  _425
REMARK  176  A    between atoms: _425  and  _426
REMARK  177  A    between atoms: _429  and  _431
REMARK  178  A    between atoms: _431  and  _432
REMARK  179  A    between atoms: _431  and  _434
REMARK  180  A    between atoms: _434  and  _435
REMARK  181  A    between atoms: _438  and  _440
REMARK  182  A    between atoms: _440  and  _441
REMARK  183  A    between atoms: _440  and  _443
REMARK  184  A    between atoms: _443  and  _444
REMARK  185  A    between atoms: _447  and  _449
REMARK  186  A    between atoms: _449  and  _450
REMARK  187  A    between atoms: _449  and  _452
REMARK  188  A    between atoms: _452  and  _453
REMARK  189  A    between atoms: _456  and  _458
REMARK  190  A    between atoms: _458  and  _459
REMARK  191  A    between atoms: _458  and  _461
REMARK  192  A    between atoms: _461  and  _462
REMARK  193  A    between atoms: _464  and  _466
REMARK  194  A    between atoms: _466  and  _467
REMARK  195  A    between atoms: _466  and  _469
REMARK  196  A    between atoms: _469  and  _470
REMARK  197  A    between atoms: _475  and  _477
REMARK  198  A    between atoms: _477  and  _478
REMARK  199  A    between atoms: _477  and  _480
REMARK  200  A    between atoms: _480  and  _481
REMARK  201  A    between atoms: _483  and  _485
REMARK  202  A    between atoms: _485  and  _486
REMARK  203  A    between atoms: _485  and  _488
REMARK  204  A    between atoms: _488  and  _489
REMARK  205  A    between atoms: _492  and  _494
REMARK  206  A    between atoms: _494  and  _495
REMARK  207  A    between atoms: _494  and  _497
REMARK  208  A    between atoms: _497  and  _498
REMARK  209  A    between atoms: _504  and  _506
REMARK  210  A    between atoms: _506  and  _507
REMARK  211  A    between atoms: _506  and  _509
REMARK  212  A    between atoms: _509  and  _510
REMARK  213  A    between atoms: _512  and  _514
REMARK  214  A    between atoms: _514  and  _515
REMARK  215  A    between atoms: _514  and  _517
REMARK  216  A    between atoms: _517  and  _518
REMARK  217  A    between atoms: _521  and  _523
REMARK  218  A    between atoms: _523  and  _524
REMARK  219  A    between atoms: _523  and  _526
REMARK  220  A    between atoms: _526  and  _527
REMARK  221  A    between atoms: _533  and  _535
REMARK  222  A    between atoms: _535  and  _536
REMARK  223  A    between atoms: _538  and  _540
REMARK  224  A    between atoms: _540  and  _541
REMARK  225  A    between atoms: _540  and  _543
REMARK  226  A    between atoms: _543  and  _544
REMARK  227  A    between atoms: _547  and  _549
REMARK  228  A    between atoms: _549  and  _550
REMARK  229  A    between atoms: _552  and  _554
REMARK  230  A    between atoms: _554  and  _555
REMARK  231  A    between atoms: _554  and  _557
REMARK  232  A    between atoms: _557  and  _558
REMARK  233  A    between atoms: _563  and  _564
REMARK  234  A    between atoms: _566  and  _568
REMARK  235  A    between atoms: _568  and  _569
REMARK  236  A    between atoms: _568  and  _571
REMARK  237  A    between atoms: _571  and  _572
REMARK  238  A    between atoms: _575  and  _577
REMARK  239  A    between atoms: _577  and  _578
REMARK  240  A    between atoms: _577  and  _580
REMARK  241  A    between atoms: _580  and  _581
REMARK  242  A    between atoms: _584  and  _586
REMARK  243  A    between atoms: _586  and  _587
REMARK  244  A    between atoms: _586  and  _589
REMARK  245  A    between atoms: _592  and  _594
REMARK  246  A    between atoms: _594  and  _595
REMARK  247  A    between atoms: _594  and  _597
REMARK  248  A    between atoms: _597  and  _598
REMARK  249  A    between atoms: _598  and  _599
REMARK  250  A    between atoms: _605  and  _606
REMARK  251  A    between atoms: _611  and  _613
REMARK  252  A    between atoms: _613  and  _614
REMARK  253  A    between atoms: _613  and  _616
REMARK  254  A    between atoms: _616  and  _617
REMARK  255  A    between atoms: _617  and  _618
REMARK                            x       y       z     vdW  Elec       q    Type
REMARK                         _______ _______ _______ _____ _____    ______ ____
ROOT
ATOM      1  O   HOH     1      15.733   8.107  20.102  0.00  0.00    +0.000 OA
ENDROOT
TORSDOF 0
REMARK  Name = ../refined-set-2016/2web/2web_pocket.pdb
REMARK  255 active torsions:
REMARK  status: ('A' for Active; 'I' for Inactive)
REMARK    1  A    between atoms: _1  and  _3
REMARK    2  A    between atoms: _3  and  _4
REMARK    3  A    between atoms: _3  and  _6
REMARK    4  A    between atoms: _6  and  _7
REMARK    5  A    between atoms: _10  and  _12
REMARK    6  A    between atoms: _12  and  _13
REMARK    7  A    between atoms: _12  and  _15
REMARK    8  A    between atoms: _15  and  _16
REMARK    9  A    between atoms: _16  and  _17
REMARK   10  A    between atoms: _20  and  _22
REMARK   11  A    between atoms: _22  and  _23
REMARK   12  A    between atoms: _22  and  _25
REMARK   13  A    between atoms: _25  and  _26
REMARK   14  A    between atoms: _26  and  _27
REMARK   15  A    between atoms: _30  and  _32
REMARK   16  A    between atoms: _32  and  _33
REMARK   17  A    between atoms: _32  and  _35
REMARK   18  A    between atoms: _35  and  _36
REMARK   19  A    between atoms: _41  and  _42
REMARK   20  A    between atoms: _44  and  _46
REMARK   21  A    between atoms: _46  and  _47
REMARK   22  A    between atoms: _46  and  _49
REMARK   23  A    between atoms: _49  and  _50
REMARK   24  A    between atoms: _55  and  _57
REMARK   25  A    between atoms: _57  and  _58
REMARK   26  A    between atoms: _57  and  _60
REMARK   27  A    between atoms: _60  and  _61
REMARK   28  A    between atoms: _67  and  _69
REMARK   29  A    between atoms: _69  and  _70
REMARK   30  A    between atoms: _69  and  _72
REMARK   31  A    between atoms: _72  and  _73
REMARK   32  A    between atoms: _76  and  _78
REMARK   33  A    between atoms: _78  and  _79
REMARK   34  A    between atoms: _78  and  _81
REMARK   35  A    between atoms: _81  and  _82
REMARK   36  A    between atoms: _85  and  _87
REMARK   37  A    between atoms: _87  and  _88
REMARK   38  A    between atoms: _90  and  _92
REMARK   39  A    between atoms: _92  and  _93
REMARK   40  A    between atoms: _92  and  _95
REMARK   41  A    between atoms: _95  and  _96
REMARK   42  A    between atoms: _98  and  _100
REMARK   43  A    between atoms: _100  and  _101
REMARK   44  A    between atoms: _104  and  _106
REMARK   45  A    between atoms: _106  and  _107
REMARK   46  A    between atoms: _106  and  _109
REMARK   47  A    between atoms: _109  and  _110
REMARK   48  A    between atoms: _113  and  _115
REMARK   49  A    between atoms: _115  and  _116
REMARK   50  A    between atoms: _115  and  _118
REMARK   51  A    between atoms: _118  and  _119
REMARK   52  A    between atoms: _129  and  _131
REMARK   53  A    between atoms: _131  and  _132
REMARK   54  A    between atoms: _131  and  _134
REMARK   55  A    between atoms: _134  and  _135
REMARK   56  A    between atoms: _138  and  _140
REMARK   57  A    between atoms: _140  and  _141
REMARK   58  A    between atoms: _140  and  _143
REMARK   59  A    between atoms: _143  and  _144
REMARK   60  A    between atoms: _146  and  _148
REMARK   61  A    between atoms: _148  and  _149
REMARK   62  A    between atoms: _148  and  _151
REMARK   63  A    between atoms: _151  and  _152
REMARK   64  A    between atoms: _157  and  _158
REMARK   65  A    between atoms: _160  and  _162
REMARK   66  A    between atoms: _162  and  _163
REMARK   67  A    between atoms: _165  and  _167
REMARK   68  A    between atoms: _167  and  _168
REMARK   69  A    between atoms: _167  and  _170
REMARK   70  A    between atoms: _170  and  _171
REMARK   71  A    between atoms: _174  and  _176
REMARK   72  A    between atoms: _176  and  _177
REMARK   73  A    between atoms: _179  and  _181
REMARK   74  A    between atoms: _181  and  _182
REMARK   75  A    between atoms: _181  and  _184
REMARK   76  A    between atoms: _184  and  _185
REMARK   77  A    between atoms: _187  and  _189
REMARK   78  A    between atoms: _189  and  _190
REMARK   79  A    between atoms: _189  and  _192
REMARK   80  A    between atoms: _192  and  _193
REMARK   81  A    between atoms: _195  and  _197
REMARK   82  A    between atoms: _197  and  _198
REMARK   83  A    between atoms: _197  and  _200
REMARK   84  A    between atoms: _200  and  _201
REMARK   85  A    between atoms: _203  and  _205
REMARK   86  A    between atoms: _205  and  _206
REMARK   87  A    between atoms: _209  and  _211
REMARK   88  A    between atoms: _211  and  _212
REMARK   89  A    between atoms: _211  and  _214
REMARK   90  A    between atoms: _214  and  _215
REMARK   91  A    between atoms: _215  and  _216
REMARK   92  A    between atoms: _221  and  _223
REMARK   93  A    between atoms: _223  and  _224
REMARK   94  A    between atoms: _223  and  _226
REMARK   95  A    between atoms: _226  and  _227
REMARK   96  A    between atoms: _233  and  _235
REMARK   97  A    between atoms: _235  and  _236
REMARK   98  A    between atoms: _235  and  _238
REMARK   99  A    between atoms: _238  and  _239
REMARK  100  A    between atoms: _239  and  _240
REMARK  101  A    between atoms: _245  and  _247
REMARK  102  A    between atoms: _247  and  _248
REMARK  103  A    between atoms: _247  and  _250
REMARK  104  A    between atoms: _250  and  _251
REMARK  105  A    between atoms: _251  and  _252
REMARK  106  A    between atoms: _257  and  _259
REMARK  107  A    between atoms: _259  and  _260
REMARK  108  A    between atoms: _259  and  _262
REMARK  109  A    between atoms: _262  and  _263
REMARK  110  A    between atoms: _266  and  _268
REMARK  111  A    between atoms: _268  and  _269
REMARK  112  A    between atoms: _268  and  _271
REMARK  113  A    between atoms: _271  and  _272
REMARK  114  A    between atoms: _275  and  _277
REMARK  115  A    between atoms: _277  and  _278
REMARK  116  A    between atoms: _277  and  _280
REMARK  117  A    between atoms: _280  and  _281
REMARK  118  A    between atoms: _286  and  _288
REMARK  119  A    between atoms: _288  and  _289
REMARK  120  A    between atoms: _288  and  _291
REMARK  121  A    between atoms: _291  and  _292
REMARK  122  A    between atoms: _297  and  _299
REMARK  123  A    between atoms: _299  and  _300
REMARK  124  A    between atoms: _302  and  _304
REMARK  125  A    between atoms: _304  and  _305
REMARK  126  A    between atoms: _304  and  _307
REMARK  127  A    between atoms: _307  and  _308
REMARK  128  A    between atoms: _311  and  _313
REMARK  129  A    between atoms: _313  and  _314
REMARK  130  A    between atoms: _316  and  _318
REMARK  131  A    between atoms: _318  and  _319
REMARK  132  A    between atoms: _318  and  _321
REMARK  133  A    between atoms: _321  and  _322
REMARK  134  A    between atoms: _325  and  _327
REMARK  135  A    between atoms: _327  and  _328
REMARK  136  A    between atoms: _331  and  _333
REMARK  137  A    between atoms: _333  and  _334
REMARK  138  A    between atoms: _333  and  _336
REMARK  139  A    between atoms: _336  and  _337
REMARK  140  A    between atoms: _340  and  _342
REMARK  141  A    between atoms: _342  and  _343
REMARK  142  A    between atoms: _342  and  _345
REMARK  143  A    between atoms: _345  and  _346
REMARK  144  A    between atoms: _349  and  _351
REMARK  145  A    between atoms: _351  and  _352
REMARK  146  A    between atoms: _351  and  _354
REMARK  147  A    between atoms: _354  and  _355
REMARK  148  A    between atoms: _355  and  _356
REMARK  149  A    between atoms: _361  and  _363
REMARK  150  A    between atoms: _363  and  _364
REMARK  151  A    between atoms: _363  and  _366
REMARK  152  A    between atoms: _366  and  _367
REMARK  153  A    between atoms: _373  and  _375
REMARK  154  A    between atoms: _375  and  _376
REMARK  155  A    between atoms: _375  and  _378
REMARK  156  A    between atoms: _378  and  _379
REMARK  157  A    between atoms: _382  and  _384
REMARK  158  A    between atoms: _384  and  _385
REMARK  159  A    between atoms: _388  and  _390
REMARK  160  A    between atoms: _390  and  _391
REMARK  161  A    between atoms: _390  and  _393
REMARK  162  A    between atoms: _393  and  _394
REMARK  163  A    between atoms: _397  and  _399
REMARK  164  A    between atoms: _399  and  _400
REMARK  165  A    between atoms: _399  and  _402
REMARK  166  A    between atoms: _402  and  _403
REMARK  167  A    between atoms: _406  and  _408
REMARK  168  A    between atoms: _408  and  _409
REMARK  169  A    between atoms: _411  and  _413
REMARK  170  A    between atoms: _413  and  _414
REMARK  171  A    between atoms: _413  and  _416
REMARK  172  A    between atoms: _416  and  _417
REMARK  173  A    between atoms: _420  and  _422
REMARK  174  A    between atoms: _422  and  _423
REMARK  175  A    between atoms: _422  and  _425
REMARK  176  A    between atoms: _425  and  _426
REMARK  177  A    between atoms: _429  and  _431
REMARK  178  A    between atoms: _431  and  _432
REMARK  179  A    between atoms: _431  and  _434
REMARK  180  A    between atoms: _434  and  _435
REMARK  181  A    between atoms: _438  and  _440
REMARK  182  A    between atoms: _440  and  _441
REMARK  183  A    between atoms: _440  and  _443
REMARK  184  A    between atoms: _443  and  _444
REMARK  185  A    between atoms: _447  and  _449
REMARK  186  A    between atoms: _449  and  _450
REMARK  187  A    between atoms: _449  and  _452
REMARK  188  A    between atoms: _452  and  _453
REMARK  189  A    between atoms: _456  and  _458
REMARK  190  A    between atoms: _458  and  _459
REMARK  191  A    between atoms: _458  and  _461
REMARK  192  A    between atoms: _461  and  _462
REMARK  193  A    between atoms: _464  and  _466
REMARK  194  A    between atoms: _466  and  _467
REMARK  195  A    between atoms: _466  and  _469
REMARK  196  A    between atoms: _469  and  _470
REMARK  197  A    between atoms: _475  and  _477
REMARK  198  A    between atoms: _477  and  _478
REMARK  199  A    between atoms: _477  and  _480
REMARK  200  A    between atoms: _480  and  _481
REMARK  201  A    between atoms: _483  and  _485
REMARK  202  A    between atoms: _485  and  _486
REMARK  203  A    between atoms: _485  and  _488
REMARK  204  A    between atoms: _488  and  _489
REMARK  205  A    between atoms: _492  and  _494
REMARK  206  A    between atoms: _494  and  _495
REMARK  207  A    between atoms: _494  and  _497
REMARK  208  A    between atoms: _497  and  _498
REMARK  209  A    between atoms: _504  and  _506
REMARK  210  A    between atoms: _506  and  _507
REMARK  211  A    between atoms: _506  and  _509
REMARK  212  A    between atoms: _509  and  _510
REMARK  213  A    between atoms: _512  and  _514
REMARK  214  A    between atoms: _514  and  _515
REMARK  215  A    between atoms: _514  and  _517
REMARK  216  A    between atoms: _517  and  _518
REMARK  217  A    between atoms: _521  and  _523
REMARK  218  A    between atoms: _523  and  _524
REMARK  219  A    between atoms: _523  and  _526
REMARK  220  A    between atoms: _526  and  _527
REMARK  221  A    between atoms: _533  and  _535
REMARK  222  A    between atoms: _535  and  _536
REMARK  223  A    between atoms: _538  and  _540
REMARK  224  A    between atoms: _540  and  _541
REMARK  225  A    between atoms: _540  and  _543
REMARK  226  A    between atoms: _543  and  _544
REMARK  227  A    between atoms: _547  and  _549
REMARK  228  A    between atoms: _549  and  _550
REMARK  229  A    between atoms: _552  and  _554
REMARK  230  A    between atoms: _554  and  _555
REMARK  231  A    between atoms: _554  and  _557
REMARK  232  A    between atoms: _557  and  _558
REMARK  233  A    between atoms: _563  and  _564
REMARK  234  A    between atoms: _566  and  _568
REMARK  235  A    between atoms: _568  and  _569
REMARK  236  A    between atoms: _568  and  _571
REMARK  237  A    between atoms: _571  and  _572
REMARK  238  A    between atoms: _575  and  _577
REMARK  239  A    between atoms: _577  and  _578
REMARK  240  A    between atoms: _577  and  _580
REMARK  241  A    between atoms: _580  and  _581
REMARK  242  A    between atoms: _584  and  _586
REMARK  243  A    between atoms: _586  and  _587
REMARK  244  A    between atoms: _586  and  _589
REMARK  245  A    between atoms: _592  and  _594
REMARK  246  A    between atoms: _594  and  _595
REMARK  247  A    between atoms: _594  and  _597
REMARK  248  A    between atoms: _597  and  _598
REMARK  249  A    between atoms: _598  and  _599
REMARK  250  A    between atoms: _605  and  _606
REMARK  251  A    between atoms: _611  and  _613
REMARK  252  A    between atoms: _613  and  _614
REMARK  253  A    between atoms: _613  and  _616
REMARK  254  A    between atoms: _616  and  _617
REMARK  255  A    between atoms: _617  and  _618
REMARK                            x       y       z     vdW  Elec       q    Type
REMARK                         _______ _______ _______ _____ _____    ______ ____
ROOT
ATOM      1  O   HOH     1      19.612   9.334  14.865  0.00  0.00    +0.000 OA
ENDROOT
TORSDOF 0
REMARK  Name = ../refined-set-2016/2web/2web_pocket.pdb
REMARK  255 active torsions:
REMARK  status: ('A' for Active; 'I' for Inactive)
REMARK    1  A    between atoms: _1  and  _3
REMARK    2  A    between atoms: _3  and  _4
REMARK    3  A    between atoms: _3  and  _6
REMARK    4  A    between atoms: _6  and  _7
REMARK    5  A    between atoms: _10  and  _12
REMARK    6  A    between atoms: _12  and  _13
REMARK    7  A    between atoms: _12  and  _15
REMARK    8  A    between atoms: _15  and  _16
REMARK    9  A    between atoms: _16  and  _17
REMARK   10  A    between atoms: _20  and  _22
REMARK   11  A    between atoms: _22  and  _23
REMARK   12  A    between atoms: _22  and  _25
REMARK   13  A    between atoms: _25  and  _26
REMARK   14  A    between atoms: _26  and  _27
REMARK   15  A    between atoms: _30  and  _32
REMARK   16  A    between atoms: _32  and  _33
REMARK   17  A    between atoms: _32  and  _35
REMARK   18  A    between atoms: _35  and  _36
REMARK   19  A    between atoms: _41  and  _42
REMARK   20  A    between atoms: _44  and  _46
REMARK   21  A    between atoms: _46  and  _47
REMARK   22  A    between atoms: _46  and  _49
REMARK   23  A    between atoms: _49  and  _50
REMARK   24  A    between atoms: _55  and  _57
REMARK   25  A    between atoms: _57  and  _58
REMARK   26  A    between atoms: _57  and  _60
REMARK   27  A    between atoms: _60  and  _61
REMARK   28  A    between atoms: _67  and  _69
REMARK   29  A    between atoms: _69  and  _70
REMARK   30  A    between atoms: _69  and  _72
REMARK   31  A    between atoms: _72  and  _73
REMARK   32  A    between atoms: _76  and  _78
REMARK   33  A    between atoms: _78  and  _79
REMARK   34  A    between atoms: _78  and  _81
REMARK   35  A    between atoms: _81  and  _82
REMARK   36  A    between atoms: _85  and  _87
REMARK   37  A    between atoms: _87  and  _88
REMARK   38  A    between atoms: _90  and  _92
REMARK   39  A    between atoms: _92  and  _93
REMARK   40  A    between atoms: _92  and  _95
REMARK   41  A    between atoms: _95  and  _96
REMARK   42  A    between atoms: _98  and  _100
REMARK   43  A    between atoms: _100  and  _101
REMARK   44  A    between atoms: _104  and  _106
REMARK   45  A    between atoms: _106  and  _107
REMARK   46  A    between atoms: _106  and  _109
REMARK   47  A    between atoms: _109  and  _110
REMARK   48  A    between atoms: _113  and  _115
REMARK   49  A    between atoms: _115  and  _116
REMARK   50  A    between atoms: _115  and  _118
REMARK   51  A    between atoms: _118  and  _119
REMARK   52  A    between atoms: _129  and  _131
REMARK   53  A    between atoms: _131  and  _132
REMARK   54  A    between atoms: _131  and  _134
REMARK   55  A    between atoms: _134  and  _135
REMARK   56  A    between atoms: _138  and  _140
REMARK   57  A    between atoms: _140  and  _141
REMARK   58  A    between atoms: _140  and  _143
REMARK   59  A    between atoms: _143  and  _144
REMARK   60  A    between atoms: _146  and  _148
REMARK   61  A    between atoms: _148  and  _149
REMARK   62  A    between atoms: _148  and  _151
REMARK   63  A    between atoms: _151  and  _152
REMARK   64  A    between atoms: _157  and  _158
REMARK   65  A    between atoms: _160  and  _162
REMARK   66  A    between atoms: _162  and  _163
REMARK   67  A    between atoms: _165  and  _167
REMARK   68  A    between atoms: _167  and  _168
REMARK   69  A    between atoms: _167  and  _170
REMARK   70  A    between atoms: _170  and  _171
REMARK   71  A    between atoms: _174  and  _176
REMARK   72  A    between atoms: _176  and  _177
REMARK   73  A    between atoms: _179  and  _181
REMARK   74  A    between atoms: _181  and  _182
REMARK   75  A    between atoms: _181  and  _184
REMARK   76  A    between atoms: _184  and  _185
REMARK   77  A    between atoms: _187  and  _189
REMARK   78  A    between atoms: _189  and  _190
REMARK   79  A    between atoms: _189  and  _192
REMARK   80  A    between atoms: _192  and  _193
REMARK   81  A    between atoms: _195  and  _197
REMARK   82  A    between atoms: _197  and  _198
REMARK   83  A    between atoms: _197  and  _200
REMARK   84  A    between atoms: _200  and  _201
REMARK   85  A    between atoms: _203  and  _205
REMARK   86  A    between atoms: _205  and  _206
REMARK   87  A    between atoms: _209  and  _211
REMARK   88  A    between atoms: _211  and  _212
REMARK   89  A    between atoms: _211  and  _214
REMARK   90  A    between atoms: _214  and  _215
REMARK   91  A    between atoms: _215  and  _216
REMARK   92  A    between atoms: _221  and  _223
REMARK   93  A    between atoms: _223  and  _224
REMARK   94  A    between atoms: _223  and  _226
REMARK   95  A    between atoms: _226  and  _227
REMARK   96  A    between atoms: _233  and  _235
REMARK   97  A    between atoms: _235  and  _236
REMARK   98  A    between atoms: _235  and  _238
REMARK   99  A    between atoms: _238  and  _239
REMARK  100  A    between atoms: _239  and  _240
REMARK  101  A    between atoms: _245  and  _247
REMARK  102  A    between atoms: _247  and  _248
REMARK  103  A    between atoms: _247  and  _250
REMARK  104  A    between atoms: _250  and  _251
REMARK  105  A    between atoms: _251  and  _252
REMARK  106  A    between atoms: _257  and  _259
REMARK  107  A    between atoms: _259  and  _260
REMARK  108  A    between atoms: _259  and  _262
REMARK  109  A    between atoms: _262  and  _263
REMARK  110  A    between atoms: _266  and  _268
REMARK  111  A    between atoms: _268  and  _269
REMARK  112  A    between atoms: _268  and  _271
REMARK  113  A    between atoms: _271  and  _272
REMARK  114  A    between atoms: _275  and  _277
REMARK  115  A    between atoms: _277  and  _278
REMARK  116  A    between atoms: _277  and  _280
REMARK  117  A    between atoms: _280  and  _281
REMARK  118  A    between atoms: _286  and  _288
REMARK  119  A    between atoms: _288  and  _289
REMARK  120  A    between atoms: _288  and  _291
REMARK  121  A    between atoms: _291  and  _292
REMARK  122  A    between atoms: _297  and  _299
REMARK  123  A    between atoms: _299  and  _300
REMARK  124  A    between atoms: _302  and  _304
REMARK  125  A    between atoms: _304  and  _305
REMARK  126  A    between atoms: _304  and  _307
REMARK  127  A    between atoms: _307  and  _308
REMARK  128  A    between atoms: _311  and  _313
REMARK  129  A    between atoms: _313  and  _314
REMARK  130  A    between atoms: _316  and  _318
REMARK  131  A    between atoms: _318  and  _319
REMARK  132  A    between atoms: _318  and  _321
REMARK  133  A    between atoms: _321  and  _322
REMARK  134  A    between atoms: _325  and  _327
REMARK  135  A    between atoms: _327  and  _328
REMARK  136  A    between atoms: _331  and  _333
REMARK  137  A    between atoms: _333  and  _334
REMARK  138  A    between atoms: _333  and  _336
REMARK  139  A    between atoms: _336  and  _337
REMARK  140  A    between atoms: _340  and  _342
REMARK  141  A    between atoms: _342  and  _343
REMARK  142  A    between atoms: _342  and  _345
REMARK  143  A    between atoms: _345  and  _346
REMARK  144  A    between atoms: _349  and  _351
REMARK  145  A    between atoms: _351  and  _352
REMARK  146  A    between atoms: _351  and  _354
REMARK  147  A    between atoms: _354  and  _355
REMARK  148  A    between atoms: _355  and  _356
REMARK  149  A    between atoms: _361  and  _363
REMARK  150  A    between atoms: _363  and  _364
REMARK  151  A    between atoms: _363  and  _366
REMARK  152  A    between atoms: _366  and  _367
REMARK  153  A    between atoms: _373  and  _375
REMARK  154  A    between atoms: _375  and  _376
REMARK  155  A    between atoms: _375  and  _378
REMARK  156  A    between atoms: _378  and  _379
REMARK  157  A    between atoms: _382  and  _384
REMARK  158  A    between atoms: _384  and  _385
REMARK  159  A    between atoms: _388  and  _390
REMARK  160  A    between atoms: _390  and  _391
REMARK  161  A    between atoms: _390  and  _393
REMARK  162  A    between atoms: _393  and  _394
REMARK  163  A    between atoms: _397  and  _399
REMARK  164  A    between atoms: _399  and  _400
REMARK  165  A    between atoms: _399  and  _402
REMARK  166  A    between atoms: _402  and  _403
REMARK  167  A    between atoms: _406  and  _408
REMARK  168  A    between atoms: _408  and  _409
REMARK  169  A    between atoms: _411  and  _413
REMARK  170  A    between atoms: _413  and  _414
REMARK  171  A    between atoms: _413  and  _416
REMARK  172  A    between atoms: _416  and  _417
REMARK  173  A    between atoms: _420  and  _422
REMARK  174  A    between atoms: _422  and  _423
REMARK  175  A    between atoms: _422  and  _425
REMARK  176  A    between atoms: _425  and  _426
REMARK  177  A    between atoms: _429  and  _431
REMARK  178  A    between atoms: _431  and  _432
REMARK  179  A    between atoms: _431  and  _434
REMARK  180  A    between atoms: _434  and  _435
REMARK  181  A    between atoms: _438  and  _440
REMARK  182  A    between atoms: _440  and  _441
REMARK  183  A    between atoms: _440  and  _443
REMARK  184  A    between atoms: _443  and  _444
REMARK  185  A    between atoms: _447  and  _449
REMARK  186  A    between atoms: _449  and  _450
REMARK  187  A    between atoms: _449  and  _452
REMARK  188  A    between atoms: _452  and  _453
REMARK  189  A    between atoms: _456  and  _458
REMARK  190  A    between atoms: _458  and  _459
REMARK  191  A    between atoms: _458  and  _461
REMARK  192  A    between atoms: _461  and  _462
REMARK  193  A    between atoms: _464  and  _466
REMARK  194  A    between atoms: _466  and  _467
REMARK  195  A    between atoms: _466  and  _469
REMARK  196  A    between atoms: _469  and  _470
REMARK  197  A    between atoms: _475  and  _477
REMARK  198  A    between atoms: _477  and  _478
REMARK  199  A    between atoms: _477  and  _480
REMARK  200  A    between atoms: _480  and  _481
REMARK  201  A    between atoms: _483  and  _485
REMARK  202  A    between atoms: _485  and  _486
REMARK  203  A    between atoms: _485  and  _488
REMARK  204  A    between atoms: _488  and  _489
REMARK  205  A    between atoms: _492  and  _494
REMARK  206  A    between atoms: _494  and  _495
REMARK  207  A    between atoms: _494  and  _497
REMARK  208  A    between atoms: _497  and  _498
REMARK  209  A    between atoms: _504  and  _506
REMARK  210  A    between atoms: _506  and  _507
REMARK  211  A    between atoms: _506  and  _509
REMARK  212  A    between atoms: _509  and  _510
REMARK  213  A    between atoms: _512  and  _514
REMARK  214  A    between atoms: _514  and  _515
REMARK  215  A    between atoms: _514  and  _517
REMARK  216  A    between atoms: _517  and  _518
REMARK  217  A    between atoms: _521  and  _523
REMARK  218  A    between atoms: _523  and  _524
REMARK  219  A    between atoms: _523  and  _526
REMARK  220  A    between atoms: _526  and  _527
REMARK  221  A    between atoms: _533  and  _535
REMARK  222  A    between atoms: _535  and  _536
REMARK  223  A    between atoms: _538  and  _540
REMARK  224  A    between atoms: _540  and  _541
REMARK  225  A    between atoms: _540  and  _543
REMARK  226  A    between atoms: _543  and  _544
REMARK  227  A    between atoms: _547  and  _549
REMARK  228  A    between atoms: _549  and  _550
REMARK  229  A    between atoms: _552  and  _554
REMARK  230  A    between atoms: _554  and  _555
REMARK  231  A    between atoms: _554  and  _557
REMARK  232  A    between atoms: _557  and  _558
REMARK  233  A    between atoms: _563  and  _564
REMARK  234  A    between atoms: _566  and  _568
REMARK  235  A    between atoms: _568  and  _569
REMARK  236  A    between atoms: _568  and  _571
REMARK  237  A    between atoms: _571  and  _572
REMARK  238  A    between atoms: _575  and  _577
REMARK  239  A    between atoms: _577  and  _578
REMARK  240  A    between atoms: _577  and  _580
REMARK  241  A    between atoms: _580  and  _581
REMARK  242  A    between atoms: _584  and  _586
REMARK  243  A    between atoms: _586  and  _587
REMARK  244  A    between atoms: _586  and  _589
REMARK  245  A    between atoms: _592  and  _594
REMARK  246  A    between atoms: _594  and  _595
REMARK  247  A    between atoms: _594  and  _597
REMARK  248  A    between atoms: _597  and  _598
REMARK  249  A    between atoms: _598  and  _599
REMARK  250  A    between atoms: _605  and  _606
REMARK  251  A    between atoms: _611  and  _613
REMARK  252  A    between atoms: _613  and  _614
REMARK  253  A    between atoms: _613  and  _616
REMARK  254  A    between atoms: _616  and  _617
REMARK  255  A    between atoms: _617  and  _618
REMARK                            x       y       z     vdW  Elec       q    Type
REMARK                         _______ _______ _______ _____ _____    ______ ____
ROOT
ATOM      1  O   HOH     1      14.738   8.610  27.167  0.00  0.00    +0.000 OA
ENDROOT
TORSDOF 0
REMARK  Name = ../refined-set-2016/2web/2web_pocket.pdb
REMARK  255 active torsions:
REMARK  status: ('A' for Active; 'I' for Inactive)
REMARK    1  A    between atoms: _1  and  _3
REMARK    2  A    between atoms: _3  and  _4
REMARK    3  A    between atoms: _3  and  _6
REMARK    4  A    between atoms: _6  and  _7
REMARK    5  A    between atoms: _10  and  _12
REMARK    6  A    between atoms: _12  and  _13
REMARK    7  A    between atoms: _12  and  _15
REMARK    8  A    between atoms: _15  and  _16
REMARK    9  A    between atoms: _16  and  _17
REMARK   10  A    between atoms: _20  and  _22
REMARK   11  A    between atoms: _22  and  _23
REMARK   12  A    between atoms: _22  and  _25
REMARK   13  A    between atoms: _25  and  _26
REMARK   14  A    between atoms: _26  and  _27
REMARK   15  A    between atoms: _30  and  _32
REMARK   16  A    between atoms: _32  and  _33
REMARK   17  A    between atoms: _32  and  _35
REMARK   18  A    between atoms: _35  and  _36
REMARK   19  A    between atoms: _41  and  _42
REMARK   20  A    between atoms: _44  and  _46
REMARK   21  A    between atoms: _46  and  _47
REMARK   22  A    between atoms: _46  and  _49
REMARK   23  A    between atoms: _49  and  _50
REMARK   24  A    between atoms: _55  and  _57
REMARK   25  A    between atoms: _57  and  _58
REMARK   26  A    between atoms: _57  and  _60
REMARK   27  A    between atoms: _60  and  _61
REMARK   28  A    between atoms: _67  and  _69
REMARK   29  A    between atoms: _69  and  _70
REMARK   30  A    between atoms: _69  and  _72
REMARK   31  A    between atoms: _72  and  _73
REMARK   32  A    between atoms: _76  and  _78
REMARK   33  A    between atoms: _78  and  _79
REMARK   34  A    between atoms: _78  and  _81
REMARK   35  A    between atoms: _81  and  _82
REMARK   36  A    between atoms: _85  and  _87
REMARK   37  A    between atoms: _87  and  _88
REMARK   38  A    between atoms: _90  and  _92
REMARK   39  A    between atoms: _92  and  _93
REMARK   40  A    between atoms: _92  and  _95
REMARK   41  A    between atoms: _95  and  _96
REMARK   42  A    between atoms: _98  and  _100
REMARK   43  A    between atoms: _100  and  _101
REMARK   44  A    between atoms: _104  and  _106
REMARK   45  A    between atoms: _106  and  _107
REMARK   46  A    between atoms: _106  and  _109
REMARK   47  A    between atoms: _109  and  _110
REMARK   48  A    between atoms: _113  and  _115
REMARK   49  A    between atoms: _115  and  _116
REMARK   50  A    between atoms: _115  and  _118
REMARK   51  A    between atoms: _118  and  _119
REMARK   52  A    between atoms: _129  and  _131
REMARK   53  A    between atoms: _131  and  _132
REMARK   54  A    between atoms: _131  and  _134
REMARK   55  A    between atoms: _134  and  _135
REMARK   56  A    between atoms: _138  and  _140
REMARK   57  A    between atoms: _140  and  _141
REMARK   58  A    between atoms: _140  and  _143
REMARK   59  A    between atoms: _143  and  _144
REMARK   60  A    between atoms: _146  and  _148
REMARK   61  A    between atoms: _148  and  _149
REMARK   62  A    between atoms: _148  and  _151
REMARK   63  A    between atoms: _151  and  _152
REMARK   64  A    between atoms: _157  and  _158
REMARK   65  A    between atoms: _160  and  _162
REMARK   66  A    between atoms: _162  and  _163
REMARK   67  A    between atoms: _165  and  _167
REMARK   68  A    between atoms: _167  and  _168
REMARK   69  A    between atoms: _167  and  _170
REMARK   70  A    between atoms: _170  and  _171
REMARK   71  A    between atoms: _174  and  _176
REMARK   72  A    between atoms: _176  and  _177
REMARK   73  A    between atoms: _179  and  _181
REMARK   74  A    between atoms: _181  and  _182
REMARK   75  A    between atoms: _181  and  _184
REMARK   76  A    between atoms: _184  and  _185
REMARK   77  A    between atoms: _187  and  _189
REMARK   78  A    between atoms: _189  and  _190
REMARK   79  A    between atoms: _189  and  _192
REMARK   80  A    between atoms: _192  and  _193
REMARK   81  A    between atoms: _195  and  _197
REMARK   82  A    between atoms: _197  and  _198
REMARK   83  A    between atoms: _197  and  _200
REMARK   84  A    between atoms: _200  and  _201
REMARK   85  A    between atoms: _203  and  _205
REMARK   86  A    between atoms: _205  and  _206
REMARK   87  A    between atoms: _209  and  _211
REMARK   88  A    between atoms: _211  and  _212
REMARK   89  A    between atoms: _211  and  _214
REMARK   90  A    between atoms: _214  and  _215
REMARK   91  A    between atoms: _215  and  _216
REMARK   92  A    between atoms: _221  and  _223
REMARK   93  A    between atoms: _223  and  _224
REMARK   94  A    between atoms: _223  and  _226
REMARK   95  A    between atoms: _226  and  _227
REMARK   96  A    between atoms: _233  and  _235
REMARK   97  A    between atoms: _235  and  _236
REMARK   98  A    between atoms: _235  and  _238
REMARK   99  A    between atoms: _238  and  _239
REMARK  100  A    between atoms: _239  and  _240
REMARK  101  A    between atoms: _245  and  _247
REMARK  102  A    between atoms: _247  and  _248
REMARK  103  A    between atoms: _247  and  _250
REMARK  104  A    between atoms: _250  and  _251
REMARK  105  A    between atoms: _251  and  _252
REMARK  106  A    between atoms: _257  and  _259
REMARK  107  A    between atoms: _259  and  _260
REMARK  108  A    between atoms: _259  and  _262
REMARK  109  A    between atoms: _262  and  _263
REMARK  110  A    between atoms: _266  and  _268
REMARK  111  A    between atoms: _268  and  _269
REMARK  112  A    between atoms: _268  and  _271
REMARK  113  A    between atoms: _271  and  _272
REMARK  114  A    between atoms: _275  and  _277
REMARK  115  A    between atoms: _277  and  _278
REMARK  116  A    between atoms: _277  and  _280
REMARK  117  A    between atoms: _280  and  _281
REMARK  118  A    between atoms: _286  and  _288
REMARK  119  A    between atoms: _288  and  _289
REMARK  120  A    between atoms: _288  and  _291
REMARK  121  A    between atoms: _291  and  _292
REMARK  122  A    between atoms: _297  and  _299
REMARK  123  A    between atoms: _299  and  _300
REMARK  124  A    between atoms: _302  and  _304
REMARK  125  A    between atoms: _304  and  _305
REMARK  126  A    between atoms: _304  and  _307
REMARK  127  A    between atoms: _307  and  _308
REMARK  128  A    between atoms: _311  and  _313
REMARK  129  A    between atoms: _313  and  _314
REMARK  130  A    between atoms: _316  and  _318
REMARK  131  A    between atoms: _318  and  _319
REMARK  132  A    between atoms: _318  and  _321
REMARK  133  A    between atoms: _321  and  _322
REMARK  134  A    between atoms: _325  and  _327
REMARK  135  A    between atoms: _327  and  _328
REMARK  136  A    between atoms: _331  and  _333
REMARK  137  A    between atoms: _333  and  _334
REMARK  138  A    between atoms: _333  and  _336
REMARK  139  A    between atoms: _336  and  _337
REMARK  140  A    between atoms: _340  and  _342
REMARK  141  A    between atoms: _342  and  _343
REMARK  142  A    between atoms: _342  and  _345
REMARK  143  A    between atoms: _345  and  _346
REMARK  144  A    between atoms: _349  and  _351
REMARK  145  A    between atoms: _351  and  _352
REMARK  146  A    between atoms: _351  and  _354
REMARK  147  A    between atoms: _354  and  _355
REMARK  148  A    between atoms: _355  and  _356
REMARK  149  A    between atoms: _361  and  _363
REMARK  150  A    between atoms: _363  and  _364
REMARK  151  A    between atoms: _363  and  _366
REMARK  152  A    between atoms: _366  and  _367
REMARK  153  A    between atoms: _373  and  _375
REMARK  154  A    between atoms: _375  and  _376
REMARK  155  A    between atoms: _375  and  _378
REMARK  156  A    between atoms: _378  and  _379
REMARK  157  A    between atoms: _382  and  _384
REMARK  158  A    between atoms: _384  and  _385
REMARK  159  A    between atoms: _388  and  _390
REMARK  160  A    between atoms: _390  and  _391
REMARK  161  A    between atoms: _390  and  _393
REMARK  162  A    between atoms: _393  and  _394
REMARK  163  A    between atoms: _397  and  _399
REMARK  164  A    between atoms: _399  and  _400
REMARK  165  A    between atoms: _399  and  _402
REMARK  166  A    between atoms: _402  and  _403
REMARK  167  A    between atoms: _406  and  _408
REMARK  168  A    between atoms: _408  and  _409
REMARK  169  A    between atoms: _411  and  _413
REMARK  170  A    between atoms: _413  and  _414
REMARK  171  A    between atoms: _413  and  _416
REMARK  172  A    between atoms: _416  and  _417
REMARK  173  A    between atoms: _420  and  _422
REMARK  174  A    between atoms: _422  and  _423
REMARK  175  A    between atoms: _422  and  _425
REMARK  176  A    between atoms: _425  and  _426
REMARK  177  A    between atoms: _429  and  _431
REMARK  178  A    between atoms: _431  and  _432
REMARK  179  A    between atoms: _431  and  _434
REMARK  180  A    between atoms: _434  and  _435
REMARK  181  A    between atoms: _438  and  _440
REMARK  182  A    between atoms: _440  and  _441
REMARK  183  A    between atoms: _440  and  _443
REMARK  184  A    between atoms: _443  and  _444
REMARK  185  A    between atoms: _447  and  _449
REMARK  186  A    between atoms: _449  and  _450
REMARK  187  A    between atoms: _449  and  _452
REMARK  188  A    between atoms: _452  and  _453
REMARK  189  A    between atoms: _456  and  _458
REMARK  190  A    between atoms: _458  and  _459
REMARK  191  A    between atoms: _458  and  _461
REMARK  192  A    between atoms: _461  and  _462
REMARK  193  A    between atoms: _464  and  _466
REMARK  194  A    between atoms: _466  and  _467
REMARK  195  A    between atoms: _466  and  _469
REMARK  196  A    between atoms: _469  and  _470
REMARK  197  A    between atoms: _475  and  _477
REMARK  198  A    between atoms: _477  and  _478
REMARK  199  A    between atoms: _477  and  _480
REMARK  200  A    between atoms: _480  and  _481
REMARK  201  A    between atoms: _483  and  _485
REMARK  202  A    between atoms: _485  and  _486
REMARK  203  A    between atoms: _485  and  _488
REMARK  204  A    between atoms: _488  and  _489
REMARK  205  A    between atoms: _492  and  _494
REMARK  206  A    between atoms: _494  and  _495
REMARK  207  A    between atoms: _494  and  _497
REMARK  208  A    between atoms: _497  and  _498
REMARK  209  A    between atoms: _504  and  _506
REMARK  210  A    between atoms: _506  and  _507
REMARK  211  A    between atoms: _506  and  _509
REMARK  212  A    between atoms: _509  and  _510
REMARK  213  A    between atoms: _512  and  _514
REMARK  214  A    between atoms: _514  and  _515
REMARK  215  A    between atoms: _514  and  _517
REMARK  216  A    between atoms: _517  and  _518
REMARK  217  A    between atoms: _521  and  _523
REMARK  218  A    between atoms: _523  and  _524
REMARK  219  A    between atoms: _523  and  _526
REMARK  220  A    between atoms: _526  and  _527
REMARK  221  A    between atoms: _533  and  _535
REMARK  222  A    between atoms: _535  and  _536
REMARK  223  A    between atoms: _538  and  _540
REMARK  224  A    between atoms: _540  and  _541
REMARK  225  A    between atoms: _540  and  _543
REMARK  226  A    between atoms: _543  and  _544
REMARK  227  A    between atoms: _547  and  _549
REMARK  228  A    between atoms: _549  and  _550
REMARK  229  A    between atoms: _552  and  _554
REMARK  230  A    between atoms: _554  and  _555
REMARK  231  A    between atoms: _554  and  _557
REMARK  232  A    between atoms: _557  and  _558
REMARK  233  A    between atoms: _563  and  _564
REMARK  234  A    between atoms: _566  and  _568
REMARK  235  A    between atoms: _568  and  _569
REMARK  236  A    between atoms: _568  and  _571
REMARK  237  A    between atoms: _571  and  _572
REMARK  238  A    between atoms: _575  and  _577
REMARK  239  A    between atoms: _577  and  _578
REMARK  240  A    between atoms: _577  and  _580
REMARK  241  A    between atoms: _580  and  _581
REMARK  242  A    between atoms: _584  and  _586
REMARK  243  A    between atoms: _586  and  _587
REMARK  244  A    between atoms: _586  and  _589
REMARK  245  A    between atoms: _592  and  _594
REMARK  246  A    between atoms: _594  and  _595
REMARK  247  A    between atoms: _594  and  _597
REMARK  248  A    between atoms: _597  and  _598
REMARK  249  A    between atoms: _598  and  _599
REMARK  250  A    between atoms: _605  and  _606
REMARK  251  A    between atoms: _611  and  _613
REMARK  252  A    between atoms: _613  and  _614
REMARK  253  A    between atoms: _613  and  _616
REMARK  254  A    between atoms: _616  and  _617
REMARK  255  A    between atoms: _617  and  _618
REMARK                            x       y       z     vdW  Elec       q    Type
REMARK                         _______ _______ _______ _____ _____    ______ ____
ROOT
ATOM      1  O   HOH     1      19.948   2.548  11.479  0.00  0.00    +0.000 OA
ENDROOT
TORSDOF 0
REMARK  Name = ../refined-set-2016/2web/2web_pocket.pdb
REMARK  255 active torsions:
REMARK  status: ('A' for Active; 'I' for Inactive)
REMARK    1  A    between atoms: _1  and  _3
REMARK    2  A    between atoms: _3  and  _4
REMARK    3  A    between atoms: _3  and  _6
REMARK    4  A    between atoms: _6  and  _7
REMARK    5  A    between atoms: _10  and  _12
REMARK    6  A    between atoms: _12  and  _13
REMARK    7  A    between atoms: _12  and  _15
REMARK    8  A    between atoms: _15  and  _16
REMARK    9  A    between atoms: _16  and  _17
REMARK   10  A    between atoms: _20  and  _22
REMARK   11  A    between atoms: _22  and  _23
REMARK   12  A    between atoms: _22  and  _25
REMARK   13  A    between atoms: _25  and  _26
REMARK   14  A    between atoms: _26  and  _27
REMARK   15  A    between atoms: _30  and  _32
REMARK   16  A    between atoms: _32  and  _33
REMARK   17  A    between atoms: _32  and  _35
REMARK   18  A    between atoms: _35  and  _36
REMARK   19  A    between atoms: _41  and  _42
REMARK   20  A    between atoms: _44  and  _46
REMARK   21  A    between atoms: _46  and  _47
REMARK   22  A    between atoms: _46  and  _49
REMARK   23  A    between atoms: _49  and  _50
REMARK   24  A    between atoms: _55  and  _57
REMARK   25  A    between atoms: _57  and  _58
REMARK   26  A    between atoms: _57  and  _60
REMARK   27  A    between atoms: _60  and  _61
REMARK   28  A    between atoms: _67  and  _69
REMARK   29  A    between atoms: _69  and  _70
REMARK   30  A    between atoms: _69  and  _72
REMARK   31  A    between atoms: _72  and  _73
REMARK   32  A    between atoms: _76  and  _78
REMARK   33  A    between atoms: _78  and  _79
REMARK   34  A    between atoms: _78  and  _81
REMARK   35  A    between atoms: _81  and  _82
REMARK   36  A    between atoms: _85  and  _87
REMARK   37  A    between atoms: _87  and  _88
REMARK   38  A    between atoms: _90  and  _92
REMARK   39  A    between atoms: _92  and  _93
REMARK   40  A    between atoms: _92  and  _95
REMARK   41  A    between atoms: _95  and  _96
REMARK   42  A    between atoms: _98  and  _100
REMARK   43  A    between atoms: _100  and  _101
REMARK   44  A    between atoms: _104  and  _106
REMARK   45  A    between atoms: _106  and  _107
REMARK   46  A    between atoms: _106  and  _109
REMARK   47  A    between atoms: _109  and  _110
REMARK   48  A    between atoms: _113  and  _115
REMARK   49  A    between atoms: _115  and  _116
REMARK   50  A    between atoms: _115  and  _118
REMARK   51  A    between atoms: _118  and  _119
REMARK   52  A    between atoms: _129  and  _131
REMARK   53  A    between atoms: _131  and  _132
REMARK   54  A    between atoms: _131  and  _134
REMARK   55  A    between atoms: _134  and  _135
REMARK   56  A    between atoms: _138  and  _140
REMARK   57  A    between atoms: _140  and  _141
REMARK   58  A    between atoms: _140  and  _143
REMARK   59  A    between atoms: _143  and  _144
REMARK   60  A    between atoms: _146  and  _148
REMARK   61  A    between atoms: _148  and  _149
REMARK   62  A    between atoms: _148  and  _151
REMARK   63  A    between atoms: _151  and  _152
REMARK   64  A    between atoms: _157  and  _158
REMARK   65  A    between atoms: _160  and  _162
REMARK   66  A    between atoms: _162  and  _163
REMARK   67  A    between atoms: _165  and  _167
REMARK   68  A    between atoms: _167  and  _168
REMARK   69  A    between atoms: _167  and  _170
REMARK   70  A    between atoms: _170  and  _171
REMARK   71  A    between atoms: _174  and  _176
REMARK   72  A    between atoms: _176  and  _177
REMARK   73  A    between atoms: _179  and  _181
REMARK   74  A    between atoms: _181  and  _182
REMARK   75  A    between atoms: _181  and  _184
REMARK   76  A    between atoms: _184  and  _185
REMARK   77  A    between atoms: _187  and  _189
REMARK   78  A    between atoms: _189  and  _190
REMARK   79  A    between atoms: _189  and  _192
REMARK   80  A    between atoms: _192  and  _193
REMARK   81  A    between atoms: _195  and  _197
REMARK   82  A    between atoms: _197  and  _198
REMARK   83  A    between atoms: _197  and  _200
REMARK   84  A    between atoms: _200  and  _201
REMARK   85  A    between atoms: _203  and  _205
REMARK   86  A    between atoms: _205  and  _206
REMARK   87  A    between atoms: _209  and  _211
REMARK   88  A    between atoms: _211  and  _212
REMARK   89  A    between atoms: _211  and  _214
REMARK   90  A    between atoms: _214  and  _215
REMARK   91  A    between atoms: _215  and  _216
REMARK   92  A    between atoms: _221  and  _223
REMARK   93  A    between atoms: _223  and  _224
REMARK   94  A    between atoms: _223  and  _226
REMARK   95  A    between atoms: _226  and  _227
REMARK   96  A    between atoms: _233  and  _235
REMARK   97  A    between atoms: _235  and  _236
REMARK   98  A    between atoms: _235  and  _238
REMARK   99  A    between atoms: _238  and  _239
REMARK  100  A    between atoms: _239  and  _240
REMARK  101  A    between atoms: _245  and  _247
REMARK  102  A    between atoms: _247  and  _248
REMARK  103  A    between atoms: _247  and  _250
REMARK  104  A    between atoms: _250  and  _251
REMARK  105  A    between atoms: _251  and  _252
REMARK  106  A    between atoms: _257  and  _259
REMARK  107  A    between atoms: _259  and  _260
REMARK  108  A    between atoms: _259  and  _262
REMARK  109  A    between atoms: _262  and  _263
REMARK  110  A    between atoms: _266  and  _268
REMARK  111  A    between atoms: _268  and  _269
REMARK  112  A    between atoms: _268  and  _271
REMARK  113  A    between atoms: _271  and  _272
REMARK  114  A    between atoms: _275  and  _277
REMARK  115  A    between atoms: _277  and  _278
REMARK  116  A    between atoms: _277  and  _280
REMARK  117  A    between atoms: _280  and  _281
REMARK  118  A    between atoms: _286  and  _288
REMARK  119  A    between atoms: _288  and  _289
REMARK  120  A    between atoms: _288  and  _291
REMARK  121  A    between atoms: _291  and  _292
REMARK  122  A    between atoms: _297  and  _299
REMARK  123  A    between atoms: _299  and  _300
REMARK  124  A    between atoms: _302  and  _304
REMARK  125  A    between atoms: _304  and  _305
REMARK  126  A    between atoms: _304  and  _307
REMARK  127  A    between atoms: _307  and  _308
REMARK  128  A    between atoms: _311  and  _313
REMARK  129  A    between atoms: _313  and  _314
REMARK  130  A    between atoms: _316  and  _318
REMARK  131  A    between atoms: _318  and  _319
REMARK  132  A    between atoms: _318  and  _321
REMARK  133  A    between atoms: _321  and  _322
REMARK  134  A    between atoms: _325  and  _327
REMARK  135  A    between atoms: _327  and  _328
REMARK  136  A    between atoms: _331  and  _333
REMARK  137  A    between atoms: _333  and  _334
REMARK  138  A    between atoms: _333  and  _336
REMARK  139  A    between atoms: _336  and  _337
REMARK  140  A    between atoms: _340  and  _342
REMARK  141  A    between atoms: _342  and  _343
REMARK  142  A    between atoms: _342  and  _345
REMARK  143  A    between atoms: _345  and  _346
REMARK  144  A    between atoms: _349  and  _351
REMARK  145  A    between atoms: _351  and  _352
REMARK  146  A    between atoms: _351  and  _354
REMARK  147  A    between atoms: _354  and  _355
REMARK  148  A    between atoms: _355  and  _356
REMARK  149  A    between atoms: _361  and  _363
REMARK  150  A    between atoms: _363  and  _364
REMARK  151  A    between atoms: _363  and  _366
REMARK  152  A    between atoms: _366  and  _367
REMARK  153  A    between atoms: _373  and  _375
REMARK  154  A    between atoms: _375  and  _376
REMARK  155  A    between atoms: _375  and  _378
REMARK  156  A    between atoms: _378  and  _379
REMARK  157  A    between atoms: _382  and  _384
REMARK  158  A    between atoms: _384  and  _385
REMARK  159  A    between atoms: _388  and  _390
REMARK  160  A    between atoms: _390  and  _391
REMARK  161  A    between atoms: _390  and  _393
REMARK  162  A    between atoms: _393  and  _394
REMARK  163  A    between atoms: _397  and  _399
REMARK  164  A    between atoms: _399  and  _400
REMARK  165  A    between atoms: _399  and  _402
REMARK  166  A    between atoms: _402  and  _403
REMARK  167  A    between atoms: _406  and  _408
REMARK  168  A    between atoms: _408  and  _409
REMARK  169  A    between atoms: _411  and  _413
REMARK  170  A    between atoms: _413  and  _414
REMARK  171  A    between atoms: _413  and  _416
REMARK  172  A    between atoms: _416  and  _417
REMARK  173  A    between atoms: _420  and  _422
REMARK  174  A    between atoms: _422  and  _423
REMARK  175  A    between atoms: _422  and  _425
REMARK  176  A    between atoms: _425  and  _426
REMARK  177  A    between atoms: _429  and  _431
REMARK  178  A    between atoms: _431  and  _432
REMARK  179  A    between atoms: _431  and  _434
REMARK  180  A    between atoms: _434  and  _435
REMARK  181  A    between atoms: _438  and  _440
REMARK  182  A    between atoms: _440  and  _441
REMARK  183  A    between atoms: _440  and  _443
REMARK  184  A    between atoms: _443  and  _444
REMARK  185  A    between atoms: _447  and  _449
REMARK  186  A    between atoms: _449  and  _450
REMARK  187  A    between atoms: _449  and  _452
REMARK  188  A    between atoms: _452  and  _453
REMARK  189  A    between atoms: _456  and  _458
REMARK  190  A    between atoms: _458  and  _459
REMARK  191  A    between atoms: _458  and  _461
REMARK  192  A    between atoms: _461  and  _462
REMARK  193  A    between atoms: _464  and  _466
REMARK  194  A    between atoms: _466  and  _467
REMARK  195  A    between atoms: _466  and  _469
REMARK  196  A    between atoms: _469  and  _470
REMARK  197  A    between atoms: _475  and  _477
REMARK  198  A    between atoms: _477  and  _478
REMARK  199  A    between atoms: _477  and  _480
REMARK  200  A    between atoms: _480  and  _481
REMARK  201  A    between atoms: _483  and  _485
REMARK  202  A    between atoms: _485  and  _486
REMARK  203  A    between atoms: _485  and  _488
REMARK  204  A    between atoms: _488  and  _489
REMARK  205  A    between atoms: _492  and  _494
REMARK  206  A    between atoms: _494  and  _495
REMARK  207  A    between atoms: _494  and  _497
REMARK  208  A    between atoms: _497  and  _498
REMARK  209  A    between atoms: _504  and  _506
REMARK  210  A    between atoms: _506  and  _507
REMARK  211  A    between atoms: _506  and  _509
REMARK  212  A    between atoms: _509  and  _510
REMARK  213  A    between atoms: _512  and  _514
REMARK  214  A    between atoms: _514  and  _515
REMARK  215  A    between atoms: _514  and  _517
REMARK  216  A    between atoms: _517  and  _518
REMARK  217  A    between atoms: _521  and  _523
REMARK  218  A    between atoms: _523  and  _524
REMARK  219  A    between atoms: _523  and  _526
REMARK  220  A    between atoms: _526  and  _527
REMARK  221  A    between atoms: _533  and  _535
REMARK  222  A    between atoms: _535  and  _536
REMARK  223  A    between atoms: _538  and  _540
REMARK  224  A    between atoms: _540  and  _541
REMARK  225  A    between atoms: _540  and  _543
REMARK  226  A    between atoms: _543  and  _544
REMARK  227  A    between atoms: _547  and  _549
REMARK  228  A    between atoms: _549  and  _550
REMARK  229  A    between atoms: _552  and  _554
REMARK  230  A    between atoms: _554  and  _555
REMARK  231  A    between atoms: _554  and  _557
REMARK  232  A    between atoms: _557  and  _558
REMARK  233  A    between atoms: _563  and  _564
REMARK  234  A    between atoms: _566  and  _568
REMARK  235  A    between atoms: _568  and  _569
REMARK  236  A    between atoms: _568  and  _571
REMARK  237  A    between atoms: _571  and  _572
REMARK  238  A    between atoms: _575  and  _577
REMARK  239  A    between atoms: _577  and  _578
REMARK  240  A    between atoms: _577  and  _580
REMARK  241  A    between atoms: _580  and  _581
REMARK  242  A    between atoms: _584  and  _586
REMARK  243  A    between atoms: _586  and  _587
REMARK  244  A    between atoms: _586  and  _589
REMARK  245  A    between atoms: _592  and  _594
REMARK  246  A    between atoms: _594  and  _595
REMARK  247  A    between atoms: _594  and  _597
REMARK  248  A    between atoms: _597  and  _598
REMARK  249  A    between atoms: _598  and  _599
REMARK  250  A    between atoms: _605  and  _606
REMARK  251  A    between atoms: _611  and  _613
REMARK  252  A    between atoms: _613  and  _614
REMARK  253  A    between atoms: _613  and  _616
REMARK  254  A    between atoms: _616  and  _617
REMARK  255  A    between atoms: _617  and  _618
REMARK                            x       y       z     vdW  Elec       q    Type
REMARK                         _______ _______ _______ _____ _____    ______ ____
ROOT
ATOM      1  O   HOH     1      28.228  15.941  27.579  0.00  0.00    +0.000 OA
ENDROOT
TORSDOF 0
REMARK  Name = ../refined-set-2016/2web/2web_pocket.pdb
REMARK  255 active torsions:
REMARK  status: ('A' for Active; 'I' for Inactive)
REMARK    1  A    between atoms: _1  and  _3
REMARK    2  A    between atoms: _3  and  _4
REMARK    3  A    between atoms: _3  and  _6
REMARK    4  A    between atoms: _6  and  _7
REMARK    5  A    between atoms: _10  and  _12
REMARK    6  A    between atoms: _12  and  _13
REMARK    7  A    between atoms: _12  and  _15
REMARK    8  A    between atoms: _15  and  _16
REMARK    9  A    between atoms: _16  and  _17
REMARK   10  A    between atoms: _20  and  _22
REMARK   11  A    between atoms: _22  and  _23
REMARK   12  A    between atoms: _22  and  _25
REMARK   13  A    between atoms: _25  and  _26
REMARK   14  A    between atoms: _26  and  _27
REMARK   15  A    between atoms: _30  and  _32
REMARK   16  A    between atoms: _32  and  _33
REMARK   17  A    between atoms: _32  and  _35
REMARK   18  A    between atoms: _35  and  _36
REMARK   19  A    between atoms: _41  and  _42
REMARK   20  A    between atoms: _44  and  _46
REMARK   21  A    between atoms: _46  and  _47
REMARK   22  A    between atoms: _46  and  _49
REMARK   23  A    between atoms: _49  and  _50
REMARK   24  A    between atoms: _55  and  _57
REMARK   25  A    between atoms: _57  and  _58
REMARK   26  A    between atoms: _57  and  _60
REMARK   27  A    between atoms: _60  and  _61
REMARK   28  A    between atoms: _67  and  _69
REMARK   29  A    between atoms: _69  and  _70
REMARK   30  A    between atoms: _69  and  _72
REMARK   31  A    between atoms: _72  and  _73
REMARK   32  A    between atoms: _76  and  _78
REMARK   33  A    between atoms: _78  and  _79
REMARK   34  A    between atoms: _78  and  _81
REMARK   35  A    between atoms: _81  and  _82
REMARK   36  A    between atoms: _85  and  _87
REMARK   37  A    between atoms: _87  and  _88
REMARK   38  A    between atoms: _90  and  _92
REMARK   39  A    between atoms: _92  and  _93
REMARK   40  A    between atoms: _92  and  _95
REMARK   41  A    between atoms: _95  and  _96
REMARK   42  A    between atoms: _98  and  _100
REMARK   43  A    between atoms: _100  and  _101
REMARK   44  A    between atoms: _104  and  _106
REMARK   45  A    between atoms: _106  and  _107
REMARK   46  A    between atoms: _106  and  _109
REMARK   47  A    between atoms: _109  and  _110
REMARK   48  A    between atoms: _113  and  _115
REMARK   49  A    between atoms: _115  and  _116
REMARK   50  A    between atoms: _115  and  _118
REMARK   51  A    between atoms: _118  and  _119
REMARK   52  A    between atoms: _129  and  _131
REMARK   53  A    between atoms: _131  and  _132
REMARK   54  A    between atoms: _131  and  _134
REMARK   55  A    between atoms: _134  and  _135
REMARK   56  A    between atoms: _138  and  _140
REMARK   57  A    between atoms: _140  and  _141
REMARK   58  A    between atoms: _140  and  _143
REMARK   59  A    between atoms: _143  and  _144
REMARK   60  A    between atoms: _146  and  _148
REMARK   61  A    between atoms: _148  and  _149
REMARK   62  A    between atoms: _148  and  _151
REMARK   63  A    between atoms: _151  and  _152
REMARK   64  A    between atoms: _157  and  _158
REMARK   65  A    between atoms: _160  and  _162
REMARK   66  A    between atoms: _162  and  _163
REMARK   67  A    between atoms: _165  and  _167
REMARK   68  A    between atoms: _167  and  _168
REMARK   69  A    between atoms: _167  and  _170
REMARK   70  A    between atoms: _170  and  _171
REMARK   71  A    between atoms: _174  and  _176
REMARK   72  A    between atoms: _176  and  _177
REMARK   73  A    between atoms: _179  and  _181
REMARK   74  A    between atoms: _181  and  _182
REMARK   75  A    between atoms: _181  and  _184
REMARK   76  A    between atoms: _184  and  _185
REMARK   77  A    between atoms: _187  and  _189
REMARK   78  A    between atoms: _189  and  _190
REMARK   79  A    between atoms: _189  and  _192
REMARK   80  A    between atoms: _192  and  _193
REMARK   81  A    between atoms: _195  and  _197
REMARK   82  A    between atoms: _197  and  _198
REMARK   83  A    between atoms: _197  and  _200
REMARK   84  A    between atoms: _200  and  _201
REMARK   85  A    between atoms: _203  and  _205
REMARK   86  A    between atoms: _205  and  _206
REMARK   87  A    between atoms: _209  and  _211
REMARK   88  A    between atoms: _211  and  _212
REMARK   89  A    between atoms: _211  and  _214
REMARK   90  A    between atoms: _214  and  _215
REMARK   91  A    between atoms: _215  and  _216
REMARK   92  A    between atoms: _221  and  _223
REMARK   93  A    between atoms: _223  and  _224
REMARK   94  A    between atoms: _223  and  _226
REMARK   95  A    between atoms: _226  and  _227
REMARK   96  A    between atoms: _233  and  _235
REMARK   97  A    between atoms: _235  and  _236
REMARK   98  A    between atoms: _235  and  _238
REMARK   99  A    between atoms: _238  and  _239
REMARK  100  A    between atoms: _239  and  _240
REMARK  101  A    between atoms: _245  and  _247
REMARK  102  A    between atoms: _247  and  _248
REMARK  103  A    between atoms: _247  and  _250
REMARK  104  A    between atoms: _250  and  _251
REMARK  105  A    between atoms: _251  and  _252
REMARK  106  A    between atoms: _257  and  _259
REMARK  107  A    between atoms: _259  and  _260
REMARK  108  A    between atoms: _259  and  _262
REMARK  109  A    between atoms: _262  and  _263
REMARK  110  A    between atoms: _266  and  _268
REMARK  111  A    between atoms: _268  and  _269
REMARK  112  A    between atoms: _268  and  _271
REMARK  113  A    between atoms: _271  and  _272
REMARK  114  A    between atoms: _275  and  _277
REMARK  115  A    between atoms: _277  and  _278
REMARK  116  A    between atoms: _277  and  _280
REMARK  117  A    between atoms: _280  and  _281
REMARK  118  A    between atoms: _286  and  _288
REMARK  119  A    between atoms: _288  and  _289
REMARK  120  A    between atoms: _288  and  _291
REMARK  121  A    between atoms: _291  and  _292
REMARK  122  A    between atoms: _297  and  _299
REMARK  123  A    between atoms: _299  and  _300
REMARK  124  A    between atoms: _302  and  _304
REMARK  125  A    between atoms: _304  and  _305
REMARK  126  A    between atoms: _304  and  _307
REMARK  127  A    between atoms: _307  and  _308
REMARK  128  A    between atoms: _311  and  _313
REMARK  129  A    between atoms: _313  and  _314
REMARK  130  A    between atoms: _316  and  _318
REMARK  131  A    between atoms: _318  and  _319
REMARK  132  A    between atoms: _318  and  _321
REMARK  133  A    between atoms: _321  and  _322
REMARK  134  A    between atoms: _325  and  _327
REMARK  135  A    between atoms: _327  and  _328
REMARK  136  A    between atoms: _331  and  _333
REMARK  137  A    between atoms: _333  and  _334
REMARK  138  A    between atoms: _333  and  _336
REMARK  139  A    between atoms: _336  and  _337
REMARK  140  A    between atoms: _340  and  _342
REMARK  141  A    between atoms: _342  and  _343
REMARK  142  A    between atoms: _342  and  _345
REMARK  143  A    between atoms: _345  and  _346
REMARK  144  A    between atoms: _349  and  _351
REMARK  145  A    between atoms: _351  and  _352
REMARK  146  A    between atoms: _351  and  _354
REMARK  147  A    between atoms: _354  and  _355
REMARK  148  A    between atoms: _355  and  _356
REMARK  149  A    between atoms: _361  and  _363
REMARK  150  A    between atoms: _363  and  _364
REMARK  151  A    between atoms: _363  and  _366
REMARK  152  A    between atoms: _366  and  _367
REMARK  153  A    between atoms: _373  and  _375
REMARK  154  A    between atoms: _375  and  _376
REMARK  155  A    between atoms: _375  and  _378
REMARK  156  A    between atoms: _378  and  _379
REMARK  157  A    between atoms: _382  and  _384
REMARK  158  A    between atoms: _384  and  _385
REMARK  159  A    between atoms: _388  and  _390
REMARK  160  A    between atoms: _390  and  _391
REMARK  161  A    between atoms: _390  and  _393
REMARK  162  A    between atoms: _393  and  _394
REMARK  163  A    between atoms: _397  and  _399
REMARK  164  A    between atoms: _399  and  _400
REMARK  165  A    between atoms: _399  and  _402
REMARK  166  A    between atoms: _402  and  _403
REMARK  167  A    between atoms: _406  and  _408
REMARK  168  A    between atoms: _408  and  _409
REMARK  169  A    between atoms: _411  and  _413
REMARK  170  A    between atoms: _413  and  _414
REMARK  171  A    between atoms: _413  and  _416
REMARK  172  A    between atoms: _416  and  _417
REMARK  173  A    between atoms: _420  and  _422
REMARK  174  A    between atoms: _422  and  _423
REMARK  175  A    between atoms: _422  and  _425
REMARK  176  A    between atoms: _425  and  _426
REMARK  177  A    between atoms: _429  and  _431
REMARK  178  A    between atoms: _431  and  _432
REMARK  179  A    between atoms: _431  and  _434
REMARK  180  A    between atoms: _434  and  _435
REMARK  181  A    between atoms: _438  and  _440
REMARK  182  A    between atoms: _440  and  _441
REMARK  183  A    between atoms: _440  and  _443
REMARK  184  A    between atoms: _443  and  _444
REMARK  185  A    between atoms: _447  and  _449
REMARK  186  A    between atoms: _449  and  _450
REMARK  187  A    between atoms: _449  and  _452
REMARK  188  A    between atoms: _452  and  _453
REMARK  189  A    between atoms: _456  and  _458
REMARK  190  A    between atoms: _458  and  _459
REMARK  191  A    between atoms: _458  and  _461
REMARK  192  A    between atoms: _461  and  _462
REMARK  193  A    between atoms: _464  and  _466
REMARK  194  A    between atoms: _466  and  _467
REMARK  195  A    between atoms: _466  and  _469
REMARK  196  A    between atoms: _469  and  _470
REMARK  197  A    between atoms: _475  and  _477
REMARK  198  A    between atoms: _477  and  _478
REMARK  199  A    between atoms: _477  and  _480
REMARK  200  A    between atoms: _480  and  _481
REMARK  201  A    between atoms: _483  and  _485
REMARK  202  A    between atoms: _485  and  _486
REMARK  203  A    between atoms: _485  and  _488
REMARK  204  A    between atoms: _488  and  _489
REMARK  205  A    between atoms: _492  and  _494
REMARK  206  A    between atoms: _494  and  _495
REMARK  207  A    between atoms: _494  and  _497
REMARK  208  A    between atoms: _497  and  _498
REMARK  209  A    between atoms: _504  and  _506
REMARK  210  A    between atoms: _506  and  _507
REMARK  211  A    between atoms: _506  and  _509
REMARK  212  A    between atoms: _509  and  _510
REMARK  213  A    between atoms: _512  and  _514
REMARK  214  A    between atoms: _514  and  _515
REMARK  215  A    between atoms: _514  and  _517
REMARK  216  A    between atoms: _517  and  _518
REMARK  217  A    between atoms: _521  and  _523
REMARK  218  A    between atoms: _523  and  _524
REMARK  219  A    between atoms: _523  and  _526
REMARK  220  A    between atoms: _526  and  _527
REMARK  221  A    between atoms: _533  and  _535
REMARK  222  A    between atoms: _535  and  _536
REMARK  223  A    between atoms: _538  and  _540
REMARK  224  A    between atoms: _540  and  _541
REMARK  225  A    between atoms: _540  and  _543
REMARK  226  A    between atoms: _543  and  _544
REMARK  227  A    between atoms: _547  and  _549
REMARK  228  A    between atoms: _549  and  _550
REMARK  229  A    between atoms: _552  and  _554
REMARK  230  A    between atoms: _554  and  _555
REMARK  231  A    between atoms: _554  and  _557
REMARK  232  A    between atoms: _557  and  _558
REMARK  233  A    between atoms: _563  and  _564
REMARK  234  A    between atoms: _566  and  _568
REMARK  235  A    between atoms: _568  and  _569
REMARK  236  A    between atoms: _568  and  _571
REMARK  237  A    between atoms: _571  and  _572
REMARK  238  A    between atoms: _575  and  _577
REMARK  239  A    between atoms: _577  and  _578
REMARK  240  A    between atoms: _577  and  _580
REMARK  241  A    between atoms: _580  and  _581
REMARK  242  A    between atoms: _584  and  _586
REMARK  243  A    between atoms: _586  and  _587
REMARK  244  A    between atoms: _586  and  _589
REMARK  245  A    between atoms: _592  and  _594
REMARK  246  A    between atoms: _594  and  _595
REMARK  247  A    between atoms: _594  and  _597
REMARK  248  A    between atoms: _597  and  _598
REMARK  249  A    between atoms: _598  and  _599
REMARK  250  A    between atoms: _605  and  _606
REMARK  251  A    between atoms: _611  and  _613
REMARK  252  A    between atoms: _613  and  _614
REMARK  253  A    between atoms: _613  and  _616
REMARK  254  A    between atoms: _616  and  _617
REMARK  255  A    between atoms: _617  and  _618
REMARK                            x       y       z     vdW  Elec       q    Type
REMARK                         _______ _______ _______ _____ _____    ______ ____
ROOT
ATOM      1  O   HOH     1      30.912  10.269  28.489  0.00  0.00    +0.000 OA
ENDROOT
TORSDOF 0
REMARK  Name = ../refined-set-2016/2web/2web_pocket.pdb
REMARK  255 active torsions:
REMARK  status: ('A' for Active; 'I' for Inactive)
REMARK    1  A    between atoms: _1  and  _3
REMARK    2  A    between atoms: _3  and  _4
REMARK    3  A    between atoms: _3  and  _6
REMARK    4  A    between atoms: _6  and  _7
REMARK    5  A    between atoms: _10  and  _12
REMARK    6  A    between atoms: _12  and  _13
REMARK    7  A    between atoms: _12  and  _15
REMARK    8  A    between atoms: _15  and  _16
REMARK    9  A    between atoms: _16  and  _17
REMARK   10  A    between atoms: _20  and  _22
REMARK   11  A    between atoms: _22  and  _23
REMARK   12  A    between atoms: _22  and  _25
REMARK   13  A    between atoms: _25  and  _26
REMARK   14  A    between atoms: _26  and  _27
REMARK   15  A    between atoms: _30  and  _32
REMARK   16  A    between atoms: _32  and  _33
REMARK   17  A    between atoms: _32  and  _35
REMARK   18  A    between atoms: _35  and  _36
REMARK   19  A    between atoms: _41  and  _42
REMARK   20  A    between atoms: _44  and  _46
REMARK   21  A    between atoms: _46  and  _47
REMARK   22  A    between atoms: _46  and  _49
REMARK   23  A    between atoms: _49  and  _50
REMARK   24  A    between atoms: _55  and  _57
REMARK   25  A    between atoms: _57  and  _58
REMARK   26  A    between atoms: _57  and  _60
REMARK   27  A    between atoms: _60  and  _61
REMARK   28  A    between atoms: _67  and  _69
REMARK   29  A    between atoms: _69  and  _70
REMARK   30  A    between atoms: _69  and  _72
REMARK   31  A    between atoms: _72  and  _73
REMARK   32  A    between atoms: _76  and  _78
REMARK   33  A    between atoms: _78  and  _79
REMARK   34  A    between atoms: _78  and  _81
REMARK   35  A    between atoms: _81  and  _82
REMARK   36  A    between atoms: _85  and  _87
REMARK   37  A    between atoms: _87  and  _88
REMARK   38  A    between atoms: _90  and  _92
REMARK   39  A    between atoms: _92  and  _93
REMARK   40  A    between atoms: _92  and  _95
REMARK   41  A    between atoms: _95  and  _96
REMARK   42  A    between atoms: _98  and  _100
REMARK   43  A    between atoms: _100  and  _101
REMARK   44  A    between atoms: _104  and  _106
REMARK   45  A    between atoms: _106  and  _107
REMARK   46  A    between atoms: _106  and  _109
REMARK   47  A    between atoms: _109  and  _110
REMARK   48  A    between atoms: _113  and  _115
REMARK   49  A    between atoms: _115  and  _116
REMARK   50  A    between atoms: _115  and  _118
REMARK   51  A    between atoms: _118  and  _119
REMARK   52  A    between atoms: _129  and  _131
REMARK   53  A    between atoms: _131  and  _132
REMARK   54  A    between atoms: _131  and  _134
REMARK   55  A    between atoms: _134  and  _135
REMARK   56  A    between atoms: _138  and  _140
REMARK   57  A    between atoms: _140  and  _141
REMARK   58  A    between atoms: _140  and  _143
REMARK   59  A    between atoms: _143  and  _144
REMARK   60  A    between atoms: _146  and  _148
REMARK   61  A    between atoms: _148  and  _149
REMARK   62  A    between atoms: _148  and  _151
REMARK   63  A    between atoms: _151  and  _152
REMARK   64  A    between atoms: _157  and  _158
REMARK   65  A    between atoms: _160  and  _162
REMARK   66  A    between atoms: _162  and  _163
REMARK   67  A    between atoms: _165  and  _167
REMARK   68  A    between atoms: _167  and  _168
REMARK   69  A    between atoms: _167  and  _170
REMARK   70  A    between atoms: _170  and  _171
REMARK   71  A    between atoms: _174  and  _176
REMARK   72  A    between atoms: _176  and  _177
REMARK   73  A    between atoms: _179  and  _181
REMARK   74  A    between atoms: _181  and  _182
REMARK   75  A    between atoms: _181  and  _184
REMARK   76  A    between atoms: _184  and  _185
REMARK   77  A    between atoms: _187  and  _189
REMARK   78  A    between atoms: _189  and  _190
REMARK   79  A    between atoms: _189  and  _192
REMARK   80  A    between atoms: _192  and  _193
REMARK   81  A    between atoms: _195  and  _197
REMARK   82  A    between atoms: _197  and  _198
REMARK   83  A    between atoms: _197  and  _200
REMARK   84  A    between atoms: _200  and  _201
REMARK   85  A    between atoms: _203  and  _205
REMARK   86  A    between atoms: _205  and  _206
REMARK   87  A    between atoms: _209  and  _211
REMARK   88  A    between atoms: _211  and  _212
REMARK   89  A    between atoms: _211  and  _214
REMARK   90  A    between atoms: _214  and  _215
REMARK   91  A    between atoms: _215  and  _216
REMARK   92  A    between atoms: _221  and  _223
REMARK   93  A    between atoms: _223  and  _224
REMARK   94  A    between atoms: _223  and  _226
REMARK   95  A    between atoms: _226  and  _227
REMARK   96  A    between atoms: _233  and  _235
REMARK   97  A    between atoms: _235  and  _236
REMARK   98  A    between atoms: _235  and  _238
REMARK   99  A    between atoms: _238  and  _239
REMARK  100  A    between atoms: _239  and  _240
REMARK  101  A    between atoms: _245  and  _247
REMARK  102  A    between atoms: _247  and  _248
REMARK  103  A    between atoms: _247  and  _250
REMARK  104  A    between atoms: _250  and  _251
REMARK  105  A    between atoms: _251  and  _252
REMARK  106  A    between atoms: _257  and  _259
REMARK  107  A    between atoms: _259  and  _260
REMARK  108  A    between atoms: _259  and  _262
REMARK  109  A    between atoms: _262  and  _263
REMARK  110  A    between atoms: _266  and  _268
REMARK  111  A    between atoms: _268  and  _269
REMARK  112  A    between atoms: _268  and  _271
REMARK  113  A    between atoms: _271  and  _272
REMARK  114  A    between atoms: _275  and  _277
REMARK  115  A    between atoms: _277  and  _278
REMARK  116  A    between atoms: _277  and  _280
REMARK  117  A    between atoms: _280  and  _281
REMARK  118  A    between atoms: _286  and  _288
REMARK  119  A    between atoms: _288  and  _289
REMARK  120  A    between atoms: _288  and  _291
REMARK  121  A    between atoms: _291  and  _292
REMARK  122  A    between atoms: _297  and  _299
REMARK  123  A    between atoms: _299  and  _300
REMARK  124  A    between atoms: _302  and  _304
REMARK  125  A    between atoms: _304  and  _305
REMARK  126  A    between atoms: _304  and  _307
REMARK  127  A    between atoms: _307  and  _308
REMARK  128  A    between atoms: _311  and  _313
REMARK  129  A    between atoms: _313  and  _314
REMARK  130  A    between atoms: _316  and  _318
REMARK  131  A    between atoms: _318  and  _319
REMARK  132  A    between atoms: _318  and  _321
REMARK  133  A    between atoms: _321  and  _322
REMARK  134  A    between atoms: _325  and  _327
REMARK  135  A    between atoms: _327  and  _328
REMARK  136  A    between atoms: _331  and  _333
REMARK  137  A    between atoms: _333  and  _334
REMARK  138  A    between atoms: _333  and  _336
REMARK  139  A    between atoms: _336  and  _337
REMARK  140  A    between atoms: _340  and  _342
REMARK  141  A    between atoms: _342  and  _343
REMARK  142  A    between atoms: _342  and  _345
REMARK  143  A    between atoms: _345  and  _346
REMARK  144  A    between atoms: _349  and  _351
REMARK  145  A    between atoms: _351  and  _352
REMARK  146  A    between atoms: _351  and  _354
REMARK  147  A    between atoms: _354  and  _355
REMARK  148  A    between atoms: _355  and  _356
REMARK  149  A    between atoms: _361  and  _363
REMARK  150  A    between atoms: _363  and  _364
REMARK  151  A    between atoms: _363  and  _366
REMARK  152  A    between atoms: _366  and  _367
REMARK  153  A    between atoms: _373  and  _375
REMARK  154  A    between atoms: _375  and  _376
REMARK  155  A    between atoms: _375  and  _378
REMARK  156  A    between atoms: _378  and  _379
REMARK  157  A    between atoms: _382  and  _384
REMARK  158  A    between atoms: _384  and  _385
REMARK  159  A    between atoms: _388  and  _390
REMARK  160  A    between atoms: _390  and  _391
REMARK  161  A    between atoms: _390  and  _393
REMARK  162  A    between atoms: _393  and  _394
REMARK  163  A    between atoms: _397  and  _399
REMARK  164  A    between atoms: _399  and  _400
REMARK  165  A    between atoms: _399  and  _402
REMARK  166  A    between atoms: _402  and  _403
REMARK  167  A    between atoms: _406  and  _408
REMARK  168  A    between atoms: _408  and  _409
REMARK  169  A    between atoms: _411  and  _413
REMARK  170  A    between atoms: _413  and  _414
REMARK  171  A    between atoms: _413  and  _416
REMARK  172  A    between atoms: _416  and  _417
REMARK  173  A    between atoms: _420  and  _422
REMARK  174  A    between atoms: _422  and  _423
REMARK  175  A    between atoms: _422  and  _425
REMARK  176  A    between atoms: _425  and  _426
REMARK  177  A    between atoms: _429  and  _431
REMARK  178  A    between atoms: _431  and  _432
REMARK  179  A    between atoms: _431  and  _434
REMARK  180  A    between atoms: _434  and  _435
REMARK  181  A    between atoms: _438  and  _440
REMARK  182  A    between atoms: _440  and  _441
REMARK  183  A    between atoms: _440  and  _443
REMARK  184  A    between atoms: _443  and  _444
REMARK  185  A    between atoms: _447  and  _449
REMARK  186  A    between atoms: _449  and  _450
REMARK  187  A    between atoms: _449  and  _452
REMARK  188  A    between atoms: _452  and  _453
REMARK  189  A    between atoms: _456  and  _458
REMARK  190  A    between atoms: _458  and  _459
REMARK  191  A    between atoms: _458  and  _461
REMARK  192  A    between atoms: _461  and  _462
REMARK  193  A    between atoms: _464  and  _466
REMARK  194  A    between atoms: _466  and  _467
REMARK  195  A    between atoms: _466  and  _469
REMARK  196  A    between atoms: _469  and  _470
REMARK  197  A    between atoms: _475  and  _477
REMARK  198  A    between atoms: _477  and  _478
REMARK  199  A    between atoms: _477  and  _480
REMARK  200  A    between atoms: _480  and  _481
REMARK  201  A    between atoms: _483  and  _485
REMARK  202  A    between atoms: _485  and  _486
REMARK  203  A    between atoms: _485  and  _488
REMARK  204  A    between atoms: _488  and  _489
REMARK  205  A    between atoms: _492  and  _494
REMARK  206  A    between atoms: _494  and  _495
REMARK  207  A    between atoms: _494  and  _497
REMARK  208  A    between atoms: _497  and  _498
REMARK  209  A    between atoms: _504  and  _506
REMARK  210  A    between atoms: _506  and  _507
REMARK  211  A    between atoms: _506  and  _509
REMARK  212  A    between atoms: _509  and  _510
REMARK  213  A    between atoms: _512  and  _514
REMARK  214  A    between atoms: _514  and  _515
REMARK  215  A    between atoms: _514  and  _517
REMARK  216  A    between atoms: _517  and  _518
REMARK  217  A    between atoms: _521  and  _523
REMARK  218  A    between atoms: _523  and  _524
REMARK  219  A    between atoms: _523  and  _526
REMARK  220  A    between atoms: _526  and  _527
REMARK  221  A    between atoms: _533  and  _535
REMARK  222  A    between atoms: _535  and  _536
REMARK  223  A    between atoms: _538  and  _540
REMARK  224  A    between atoms: _540  and  _541
REMARK  225  A    between atoms: _540  and  _543
REMARK  226  A    between atoms: _543  and  _544
REMARK  227  A    between atoms: _547  and  _549
REMARK  228  A    between atoms: _549  and  _550
REMARK  229  A    between atoms: _552  and  _554
REMARK  230  A    between atoms: _554  and  _555
REMARK  231  A    between atoms: _554  and  _557
REMARK  232  A    between atoms: _557  and  _558
REMARK  233  A    between atoms: _563  and  _564
REMARK  234  A    between atoms: _566  and  _568
REMARK  235  A    between atoms: _568  and  _569
REMARK  236  A    between atoms: _568  and  _571
REMARK  237  A    between atoms: _571  and  _572
REMARK  238  A    between atoms: _575  and  _577
REMARK  239  A    between atoms: _577  and  _578
REMARK  240  A    between atoms: _577  and  _580
REMARK  241  A    between atoms: _580  and  _581
REMARK  242  A    between atoms: _584  and  _586
REMARK  243  A    between atoms: _586  and  _587
REMARK  244  A    between atoms: _586  and  _589
REMARK  245  A    between atoms: _592  and  _594
REMARK  246  A    between atoms: _594  and  _595
REMARK  247  A    between atoms: _594  and  _597
REMARK  248  A    between atoms: _597  and  _598
REMARK  249  A    between atoms: _598  and  _599
REMARK  250  A    between atoms: _605  and  _606
REMARK  251  A    between atoms: _611  and  _613
REMARK  252  A    between atoms: _613  and  _614
REMARK  253  A    between atoms: _613  and  _616
REMARK  254  A    between atoms: _616  and  _617
REMARK  255  A    between atoms: _617  and  _618
REMARK                            x       y       z     vdW  Elec       q    Type
REMARK                         _______ _______ _______ _____ _____    ______ ____
ROOT
ATOM      1  O   HOH     1      17.660   4.924  17.427  0.00  0.00    +0.000 OA
ENDROOT
TORSDOF 0
REMARK  Name = ../refined-set-2016/2web/2web_pocket.pdb
REMARK  255 active torsions:
REMARK  status: ('A' for Active; 'I' for Inactive)
REMARK    1  A    between atoms: _1  and  _3
REMARK    2  A    between atoms: _3  and  _4
REMARK    3  A    between atoms: _3  and  _6
REMARK    4  A    between atoms: _6  and  _7
REMARK    5  A    between atoms: _10  and  _12
REMARK    6  A    between atoms: _12  and  _13
REMARK    7  A    between atoms: _12  and  _15
REMARK    8  A    between atoms: _15  and  _16
REMARK    9  A    between atoms: _16  and  _17
REMARK   10  A    between atoms: _20  and  _22
REMARK   11  A    between atoms: _22  and  _23
REMARK   12  A    between atoms: _22  and  _25
REMARK   13  A    between atoms: _25  and  _26
REMARK   14  A    between atoms: _26  and  _27
REMARK   15  A    between atoms: _30  and  _32
REMARK   16  A    between atoms: _32  and  _33
REMARK   17  A    between atoms: _32  and  _35
REMARK   18  A    between atoms: _35  and  _36
REMARK   19  A    between atoms: _41  and  _42
REMARK   20  A    between atoms: _44  and  _46
REMARK   21  A    between atoms: _46  and  _47
REMARK   22  A    between atoms: _46  and  _49
REMARK   23  A    between atoms: _49  and  _50
REMARK   24  A    between atoms: _55  and  _57
REMARK   25  A    between atoms: _57  and  _58
REMARK   26  A    between atoms: _57  and  _60
REMARK   27  A    between atoms: _60  and  _61
REMARK   28  A    between atoms: _67  and  _69
REMARK   29  A    between atoms: _69  and  _70
REMARK   30  A    between atoms: _69  and  _72
REMARK   31  A    between atoms: _72  and  _73
REMARK   32  A    between atoms: _76  and  _78
REMARK   33  A    between atoms: _78  and  _79
REMARK   34  A    between atoms: _78  and  _81
REMARK   35  A    between atoms: _81  and  _82
REMARK   36  A    between atoms: _85  and  _87
REMARK   37  A    between atoms: _87  and  _88
REMARK   38  A    between atoms: _90  and  _92
REMARK   39  A    between atoms: _92  and  _93
REMARK   40  A    between atoms: _92  and  _95
REMARK   41  A    between atoms: _95  and  _96
REMARK   42  A    between atoms: _98  and  _100
REMARK   43  A    between atoms: _100  and  _101
REMARK   44  A    between atoms: _104  and  _106
REMARK   45  A    between atoms: _106  and  _107
REMARK   46  A    between atoms: _106  and  _109
REMARK   47  A    between atoms: _109  and  _110
REMARK   48  A    between atoms: _113  and  _115
REMARK   49  A    between atoms: _115  and  _116
REMARK   50  A    between atoms: _115  and  _118
REMARK   51  A    between atoms: _118  and  _119
REMARK   52  A    between atoms: _129  and  _131
REMARK   53  A    between atoms: _131  and  _132
REMARK   54  A    between atoms: _131  and  _134
REMARK   55  A    between atoms: _134  and  _135
REMARK   56  A    between atoms: _138  and  _140
REMARK   57  A    between atoms: _140  and  _141
REMARK   58  A    between atoms: _140  and  _143
REMARK   59  A    between atoms: _143  and  _144
REMARK   60  A    between atoms: _146  and  _148
REMARK   61  A    between atoms: _148  and  _149
REMARK   62  A    between atoms: _148  and  _151
REMARK   63  A    between atoms: _151  and  _152
REMARK   64  A    between atoms: _157  and  _158
REMARK   65  A    between atoms: _160  and  _162
REMARK   66  A    between atoms: _162  and  _163
REMARK   67  A    between atoms: _165  and  _167
REMARK   68  A    between atoms: _167  and  _168
REMARK   69  A    between atoms: _167  and  _170
REMARK   70  A    between atoms: _170  and  _171
REMARK   71  A    between atoms: _174  and  _176
REMARK   72  A    between atoms: _176  and  _177
REMARK   73  A    between atoms: _179  and  _181
REMARK   74  A    between atoms: _181  and  _182
REMARK   75  A    between atoms: _181  and  _184
REMARK   76  A    between atoms: _184  and  _185
REMARK   77  A    between atoms: _187  and  _189
REMARK   78  A    between atoms: _189  and  _190
REMARK   79  A    between atoms: _189  and  _192
REMARK   80  A    between atoms: _192  and  _193
REMARK   81  A    between atoms: _195  and  _197
REMARK   82  A    between atoms: _197  and  _198
REMARK   83  A    between atoms: _197  and  _200
REMARK   84  A    between atoms: _200  and  _201
REMARK   85  A    between atoms: _203  and  _205
REMARK   86  A    between atoms: _205  and  _206
REMARK   87  A    between atoms: _209  and  _211
REMARK   88  A    between atoms: _211  and  _212
REMARK   89  A    between atoms: _211  and  _214
REMARK   90  A    between atoms: _214  and  _215
REMARK   91  A    between atoms: _215  and  _216
REMARK   92  A    between atoms: _221  and  _223
REMARK   93  A    between atoms: _223  and  _224
REMARK   94  A    between atoms: _223  and  _226
REMARK   95  A    between atoms: _226  and  _227
REMARK   96  A    between atoms: _233  and  _235
REMARK   97  A    between atoms: _235  and  _236
REMARK   98  A    between atoms: _235  and  _238
REMARK   99  A    between atoms: _238  and  _239
REMARK  100  A    between atoms: _239  and  _240
REMARK  101  A    between atoms: _245  and  _247
REMARK  102  A    between atoms: _247  and  _248
REMARK  103  A    between atoms: _247  and  _250
REMARK  104  A    between atoms: _250  and  _251
REMARK  105  A    between atoms: _251  and  _252
REMARK  106  A    between atoms: _257  and  _259
REMARK  107  A    between atoms: _259  and  _260
REMARK  108  A    between atoms: _259  and  _262
REMARK  109  A    between atoms: _262  and  _263
REMARK  110  A    between atoms: _266  and  _268
REMARK  111  A    between atoms: _268  and  _269
REMARK  112  A    between atoms: _268  and  _271
REMARK  113  A    between atoms: _271  and  _272
REMARK  114  A    between atoms: _275  and  _277
REMARK  115  A    between atoms: _277  and  _278
REMARK  116  A    between atoms: _277  and  _280
REMARK  117  A    between atoms: _280  and  _281
REMARK  118  A    between atoms: _286  and  _288
REMARK  119  A    between atoms: _288  and  _289
REMARK  120  A    between atoms: _288  and  _291
REMARK  121  A    between atoms: _291  and  _292
REMARK  122  A    between atoms: _297  and  _299
REMARK  123  A    between atoms: _299  and  _300
REMARK  124  A    between atoms: _302  and  _304
REMARK  125  A    between atoms: _304  and  _305
REMARK  126  A    between atoms: _304  and  _307
REMARK  127  A    between atoms: _307  and  _308
REMARK  128  A    between atoms: _311  and  _313
REMARK  129  A    between atoms: _313  and  _314
REMARK  130  A    between atoms: _316  and  _318
REMARK  131  A    between atoms: _318  and  _319
REMARK  132  A    between atoms: _318  and  _321
REMARK  133  A    between atoms: _321  and  _322
REMARK  134  A    between atoms: _325  and  _327
REMARK  135  A    between atoms: _327  and  _328
REMARK  136  A    between atoms: _331  and  _333
REMARK  137  A    between atoms: _333  and  _334
REMARK  138  A    between atoms: _333  and  _336
REMARK  139  A    between atoms: _336  and  _337
REMARK  140  A    between atoms: _340  and  _342
REMARK  141  A    between atoms: _342  and  _343
REMARK  142  A    between atoms: _342  and  _345
REMARK  143  A    between atoms: _345  and  _346
REMARK  144  A    between atoms: _349  and  _351
REMARK  145  A    between atoms: _351  and  _352
REMARK  146  A    between atoms: _351  and  _354
REMARK  147  A    between atoms: _354  and  _355
REMARK  148  A    between atoms: _355  and  _356
REMARK  149  A    between atoms: _361  and  _363
REMARK  150  A    between atoms: _363  and  _364
REMARK  151  A    between atoms: _363  and  _366
REMARK  152  A    between atoms: _366  and  _367
REMARK  153  A    between atoms: _373  and  _375
REMARK  154  A    between atoms: _375  and  _376
REMARK  155  A    between atoms: _375  and  _378
REMARK  156  A    between atoms: _378  and  _379
REMARK  157  A    between atoms: _382  and  _384
REMARK  158  A    between atoms: _384  and  _385
REMARK  159  A    between atoms: _388  and  _390
REMARK  160  A    between atoms: _390  and  _391
REMARK  161  A    between atoms: _390  and  _393
REMARK  162  A    between atoms: _393  and  _394
REMARK  163  A    between atoms: _397  and  _399
REMARK  164  A    between atoms: _399  and  _400
REMARK  165  A    between atoms: _399  and  _402
REMARK  166  A    between atoms: _402  and  _403
REMARK  167  A    between atoms: _406  and  _408
REMARK  168  A    between atoms: _408  and  _409
REMARK  169  A    between atoms: _411  and  _413
REMARK  170  A    between atoms: _413  and  _414
REMARK  171  A    between atoms: _413  and  _416
REMARK  172  A    between atoms: _416  and  _417
REMARK  173  A    between atoms: _420  and  _422
REMARK  174  A    between atoms: _422  and  _423
REMARK  175  A    between atoms: _422  and  _425
REMARK  176  A    between atoms: _425  and  _426
REMARK  177  A    between atoms: _429  and  _431
REMARK  178  A    between atoms: _431  and  _432
REMARK  179  A    between atoms: _431  and  _434
REMARK  180  A    between atoms: _434  and  _435
REMARK  181  A    between atoms: _438  and  _440
REMARK  182  A    between atoms: _440  and  _441
REMARK  183  A    between atoms: _440  and  _443
REMARK  184  A    between atoms: _443  and  _444
REMARK  185  A    between atoms: _447  and  _449
REMARK  186  A    between atoms: _449  and  _450
REMARK  187  A    between atoms: _449  and  _452
REMARK  188  A    between atoms: _452  and  _453
REMARK  189  A    between atoms: _456  and  _458
REMARK  190  A    between atoms: _458  and  _459
REMARK  191  A    between atoms: _458  and  _461
REMARK  192  A    between atoms: _461  and  _462
REMARK  193  A    between atoms: _464  and  _466
REMARK  194  A    between atoms: _466  and  _467
REMARK  195  A    between atoms: _466  and  _469
REMARK  196  A    between atoms: _469  and  _470
REMARK  197  A    between atoms: _475  and  _477
REMARK  198  A    between atoms: _477  and  _478
REMARK  199  A    between atoms: _477  and  _480
REMARK  200  A    between atoms: _480  and  _481
REMARK  201  A    between atoms: _483  and  _485
REMARK  202  A    between atoms: _485  and  _486
REMARK  203  A    between atoms: _485  and  _488
REMARK  204  A    between atoms: _488  and  _489
REMARK  205  A    between atoms: _492  and  _494
REMARK  206  A    between atoms: _494  and  _495
REMARK  207  A    between atoms: _494  and  _497
REMARK  208  A    between atoms: _497  and  _498
REMARK  209  A    between atoms: _504  and  _506
REMARK  210  A    between atoms: _506  and  _507
REMARK  211  A    between atoms: _506  and  _509
REMARK  212  A    between atoms: _509  and  _510
REMARK  213  A    between atoms: _512  and  _514
REMARK  214  A    between atoms: _514  and  _515
REMARK  215  A    between atoms: _514  and  _517
REMARK  216  A    between atoms: _517  and  _518
REMARK  217  A    between atoms: _521  and  _523
REMARK  218  A    between atoms: _523  and  _524
REMARK  219  A    between atoms: _523  and  _526
REMARK  220  A    between atoms: _526  and  _527
REMARK  221  A    between atoms: _533  and  _535
REMARK  222  A    between atoms: _535  and  _536
REMARK  223  A    between atoms: _538  and  _540
REMARK  224  A    between atoms: _540  and  _541
REMARK  225  A    between atoms: _540  and  _543
REMARK  226  A    between atoms: _543  and  _544
REMARK  227  A    between atoms: _547  and  _549
REMARK  228  A    between atoms: _549  and  _550
REMARK  229  A    between atoms: _552  and  _554
REMARK  230  A    between atoms: _554  and  _555
REMARK  231  A    between atoms: _554  and  _557
REMARK  232  A    between atoms: _557  and  _558
REMARK  233  A    between atoms: _563  and  _564
REMARK  234  A    between atoms: _566  and  _568
REMARK  235  A    between atoms: _568  and  _569
REMARK  236  A    between atoms: _568  and  _571
REMARK  237  A    between atoms: _571  and  _572
REMARK  238  A    between atoms: _575  and  _577
REMARK  239  A    between atoms: _577  and  _578
REMARK  240  A    between atoms: _577  and  _580
REMARK  241  A    between atoms: _580  and  _581
REMARK  242  A    between atoms: _584  and  _586
REMARK  243  A    between atoms: _586  and  _587
REMARK  244  A    between atoms: _586  and  _589
REMARK  245  A    between atoms: _592  and  _594
REMARK  246  A    between atoms: _594  and  _595
REMARK  247  A    between atoms: _594  and  _597
REMARK  248  A    between atoms: _597  and  _598
REMARK  249  A    between atoms: _598  and  _599
REMARK  250  A    between atoms: _605  and  _606
REMARK  251  A    between atoms: _611  and  _613
REMARK  252  A    between atoms: _613  and  _614
REMARK  253  A    between atoms: _613  and  _616
REMARK  254  A    between atoms: _616  and  _617
REMARK  255  A    between atoms: _617  and  _618
REMARK                            x       y       z     vdW  Elec       q    Type
REMARK                         _______ _______ _______ _____ _____    ______ ____
ROOT
ATOM      1  O   HOH     1      20.013   9.541  29.811  0.00  0.00    +0.000 OA
ENDROOT
TORSDOF 0
REMARK  Name = ../refined-set-2016/2web/2web_pocket.pdb
REMARK  255 active torsions:
REMARK  status: ('A' for Active; 'I' for Inactive)
REMARK    1  A    between atoms: _1  and  _3
REMARK    2  A    between atoms: _3  and  _4
REMARK    3  A    between atoms: _3  and  _6
REMARK    4  A    between atoms: _6  and  _7
REMARK    5  A    between atoms: _10  and  _12
REMARK    6  A    between atoms: _12  and  _13
REMARK    7  A    between atoms: _12  and  _15
REMARK    8  A    between atoms: _15  and  _16
REMARK    9  A    between atoms: _16  and  _17
REMARK   10  A    between atoms: _20  and  _22
REMARK   11  A    between atoms: _22  and  _23
REMARK   12  A    between atoms: _22  and  _25
REMARK   13  A    between atoms: _25  and  _26
REMARK   14  A    between atoms: _26  and  _27
REMARK   15  A    between atoms: _30  and  _32
REMARK   16  A    between atoms: _32  and  _33
REMARK   17  A    between atoms: _32  and  _35
REMARK   18  A    between atoms: _35  and  _36
REMARK   19  A    between atoms: _41  and  _42
REMARK   20  A    between atoms: _44  and  _46
REMARK   21  A    between atoms: _46  and  _47
REMARK   22  A    between atoms: _46  and  _49
REMARK   23  A    between atoms: _49  and  _50
REMARK   24  A    between atoms: _55  and  _57
REMARK   25  A    between atoms: _57  and  _58
REMARK   26  A    between atoms: _57  and  _60
REMARK   27  A    between atoms: _60  and  _61
REMARK   28  A    between atoms: _67  and  _69
REMARK   29  A    between atoms: _69  and  _70
REMARK   30  A    between atoms: _69  and  _72
REMARK   31  A    between atoms: _72  and  _73
REMARK   32  A    between atoms: _76  and  _78
REMARK   33  A    between atoms: _78  and  _79
REMARK   34  A    between atoms: _78  and  _81
REMARK   35  A    between atoms: _81  and  _82
REMARK   36  A    between atoms: _85  and  _87
REMARK   37  A    between atoms: _87  and  _88
REMARK   38  A    between atoms: _90  and  _92
REMARK   39  A    between atoms: _92  and  _93
REMARK   40  A    between atoms: _92  and  _95
REMARK   41  A    between atoms: _95  and  _96
REMARK   42  A    between atoms: _98  and  _100
REMARK   43  A    between atoms: _100  and  _101
REMARK   44  A    between atoms: _104  and  _106
REMARK   45  A    between atoms: _106  and  _107
REMARK   46  A    between atoms: _106  and  _109
REMARK   47  A    between atoms: _109  and  _110
REMARK   48  A    between atoms: _113  and  _115
REMARK   49  A    between atoms: _115  and  _116
REMARK   50  A    between atoms: _115  and  _118
REMARK   51  A    between atoms: _118  and  _119
REMARK   52  A    between atoms: _129  and  _131
REMARK   53  A    between atoms: _131  and  _132
REMARK   54  A    between atoms: _131  and  _134
REMARK   55  A    between atoms: _134  and  _135
REMARK   56  A    between atoms: _138  and  _140
REMARK   57  A    between atoms: _140  and  _141
REMARK   58  A    between atoms: _140  and  _143
REMARK   59  A    between atoms: _143  and  _144
REMARK   60  A    between atoms: _146  and  _148
REMARK   61  A    between atoms: _148  and  _149
REMARK   62  A    between atoms: _148  and  _151
REMARK   63  A    between atoms: _151  and  _152
REMARK   64  A    between atoms: _157  and  _158
REMARK   65  A    between atoms: _160  and  _162
REMARK   66  A    between atoms: _162  and  _163
REMARK   67  A    between atoms: _165  and  _167
REMARK   68  A    between atoms: _167  and  _168
REMARK   69  A    between atoms: _167  and  _170
REMARK   70  A    between atoms: _170  and  _171
REMARK   71  A    between atoms: _174  and  _176
REMARK   72  A    between atoms: _176  and  _177
REMARK   73  A    between atoms: _179  and  _181
REMARK   74  A    between atoms: _181  and  _182
REMARK   75  A    between atoms: _181  and  _184
REMARK   76  A    between atoms: _184  and  _185
REMARK   77  A    between atoms: _187  and  _189
REMARK   78  A    between atoms: _189  and  _190
REMARK   79  A    between atoms: _189  and  _192
REMARK   80  A    between atoms: _192  and  _193
REMARK   81  A    between atoms: _195  and  _197
REMARK   82  A    between atoms: _197  and  _198
REMARK   83  A    between atoms: _197  and  _200
REMARK   84  A    between atoms: _200  and  _201
REMARK   85  A    between atoms: _203  and  _205
REMARK   86  A    between atoms: _205  and  _206
REMARK   87  A    between atoms: _209  and  _211
REMARK   88  A    between atoms: _211  and  _212
REMARK   89  A    between atoms: _211  and  _214
REMARK   90  A    between atoms: _214  and  _215
REMARK   91  A    between atoms: _215  and  _216
REMARK   92  A    between atoms: _221  and  _223
REMARK   93  A    between atoms: _223  and  _224
REMARK   94  A    between atoms: _223  and  _226
REMARK   95  A    between atoms: _226  and  _227
REMARK   96  A    between atoms: _233  and  _235
REMARK   97  A    between atoms: _235  and  _236
REMARK   98  A    between atoms: _235  and  _238
REMARK   99  A    between atoms: _238  and  _239
REMARK  100  A    between atoms: _239  and  _240
REMARK  101  A    between atoms: _245  and  _247
REMARK  102  A    between atoms: _247  and  _248
REMARK  103  A    between atoms: _247  and  _250
REMARK  104  A    between atoms: _250  and  _251
REMARK  105  A    between atoms: _251  and  _252
REMARK  106  A    between atoms: _257  and  _259
REMARK  107  A    between atoms: _259  and  _260
REMARK  108  A    between atoms: _259  and  _262
REMARK  109  A    between atoms: _262  and  _263
REMARK  110  A    between atoms: _266  and  _268
REMARK  111  A    between atoms: _268  and  _269
REMARK  112  A    between atoms: _268  and  _271
REMARK  113  A    between atoms: _271  and  _272
REMARK  114  A    between atoms: _275  and  _277
REMARK  115  A    between atoms: _277  and  _278
REMARK  116  A    between atoms: _277  and  _280
REMARK  117  A    between atoms: _280  and  _281
REMARK  118  A    between atoms: _286  and  _288
REMARK  119  A    between atoms: _288  and  _289
REMARK  120  A    between atoms: _288  and  _291
REMARK  121  A    between atoms: _291  and  _292
REMARK  122  A    between atoms: _297  and  _299
REMARK  123  A    between atoms: _299  and  _300
REMARK  124  A    between atoms: _302  and  _304
REMARK  125  A    between atoms: _304  and  _305
REMARK  126  A    between atoms: _304  and  _307
REMARK  127  A    between atoms: _307  and  _308
REMARK  128  A    between atoms: _311  and  _313
REMARK  129  A    between atoms: _313  and  _314
REMARK  130  A    between atoms: _316  and  _318
REMARK  131  A    between atoms: _318  and  _319
REMARK  132  A    between atoms: _318  and  _321
REMARK  133  A    between atoms: _321  and  _322
REMARK  134  A    between atoms: _325  and  _327
REMARK  135  A    between atoms: _327  and  _328
REMARK  136  A    between atoms: _331  and  _333
REMARK  137  A    between atoms: _333  and  _334
REMARK  138  A    between atoms: _333  and  _336
REMARK  139  A    between atoms: _336  and  _337
REMARK  140  A    between atoms: _340  and  _342
REMARK  141  A    between atoms: _342  and  _343
REMARK  142  A    between atoms: _342  and  _345
REMARK  143  A    between atoms: _345  and  _346
REMARK  144  A    between atoms: _349  and  _351
REMARK  145  A    between atoms: _351  and  _352
REMARK  146  A    between atoms: _351  and  _354
REMARK  147  A    between atoms: _354  and  _355
REMARK  148  A    between atoms: _355  and  _356
REMARK  149  A    between atoms: _361  and  _363
REMARK  150  A    between atoms: _363  and  _364
REMARK  151  A    between atoms: _363  and  _366
REMARK  152  A    between atoms: _366  and  _367
REMARK  153  A    between atoms: _373  and  _375
REMARK  154  A    between atoms: _375  and  _376
REMARK  155  A    between atoms: _375  and  _378
REMARK  156  A    between atoms: _378  and  _379
REMARK  157  A    between atoms: _382  and  _384
REMARK  158  A    between atoms: _384  and  _385
REMARK  159  A    between atoms: _388  and  _390
REMARK  160  A    between atoms: _390  and  _391
REMARK  161  A    between atoms: _390  and  _393
REMARK  162  A    between atoms: _393  and  _394
REMARK  163  A    between atoms: _397  and  _399
REMARK  164  A    between atoms: _399  and  _400
REMARK  165  A    between atoms: _399  and  _402
REMARK  166  A    between atoms: _402  and  _403
REMARK  167  A    between atoms: _406  and  _408
REMARK  168  A    between atoms: _408  and  _409
REMARK  169  A    between atoms: _411  and  _413
REMARK  170  A    between atoms: _413  and  _414
REMARK  171  A    between atoms: _413  and  _416
REMARK  172  A    between atoms: _416  and  _417
REMARK  173  A    between atoms: _420  and  _422
REMARK  174  A    between atoms: _422  and  _423
REMARK  175  A    between atoms: _422  and  _425
REMARK  176  A    between atoms: _425  and  _426
REMARK  177  A    between atoms: _429  and  _431
REMARK  178  A    between atoms: _431  and  _432
REMARK  179  A    between atoms: _431  and  _434
REMARK  180  A    between atoms: _434  and  _435
REMARK  181  A    between atoms: _438  and  _440
REMARK  182  A    between atoms: _440  and  _441
REMARK  183  A    between atoms: _440  and  _443
REMARK  184  A    between atoms: _443  and  _444
REMARK  185  A    between atoms: _447  and  _449
REMARK  186  A    between atoms: _449  and  _450
REMARK  187  A    between atoms: _449  and  _452
REMARK  188  A    between atoms: _452  and  _453
REMARK  189  A    between atoms: _456  and  _458
REMARK  190  A    between atoms: _458  and  _459
REMARK  191  A    between atoms: _458  and  _461
REMARK  192  A    between atoms: _461  and  _462
REMARK  193  A    between atoms: _464  and  _466
REMARK  194  A    between atoms: _466  and  _467
REMARK  195  A    between atoms: _466  and  _469
REMARK  196  A    between atoms: _469  and  _470
REMARK  197  A    between atoms: _475  and  _477
REMARK  198  A    between atoms: _477  and  _478
REMARK  199  A    between atoms: _477  and  _480
REMARK  200  A    between atoms: _480  and  _481
REMARK  201  A    between atoms: _483  and  _485
REMARK  202  A    between atoms: _485  and  _486
REMARK  203  A    between atoms: _485  and  _488
REMARK  204  A    between atoms: _488  and  _489
REMARK  205  A    between atoms: _492  and  _494
REMARK  206  A    between atoms: _494  and  _495
REMARK  207  A    between atoms: _494  and  _497
REMARK  208  A    between atoms: _497  and  _498
REMARK  209  A    between atoms: _504  and  _506
REMARK  210  A    between atoms: _506  and  _507
REMARK  211  A    between atoms: _506  and  _509
REMARK  212  A    between atoms: _509  and  _510
REMARK  213  A    between atoms: _512  and  _514
REMARK  214  A    between atoms: _514  and  _515
REMARK  215  A    between atoms: _514  and  _517
REMARK  216  A    between atoms: _517  and  _518
REMARK  217  A    between atoms: _521  and  _523
REMARK  218  A    between atoms: _523  and  _524
REMARK  219  A    between atoms: _523  and  _526
REMARK  220  A    between atoms: _526  and  _527
REMARK  221  A    between atoms: _533  and  _535
REMARK  222  A    between atoms: _535  and  _536
REMARK  223  A    between atoms: _538  and  _540
REMARK  224  A    between atoms: _540  and  _541
REMARK  225  A    between atoms: _540  and  _543
REMARK  226  A    between atoms: _543  and  _544
REMARK  227  A    between atoms: _547  and  _549
REMARK  228  A    between atoms: _549  and  _550
REMARK  229  A    between atoms: _552  and  _554
REMARK  230  A    between atoms: _554  and  _555
REMARK  231  A    between atoms: _554  and  _557
REMARK  232  A    between atoms: _557  and  _558
REMARK  233  A    between atoms: _563  and  _564
REMARK  234  A    between atoms: _566  and  _568
REMARK  235  A    between atoms: _568  and  _569
REMARK  236  A    between atoms: _568  and  _571
REMARK  237  A    between atoms: _571  and  _572
REMARK  238  A    between atoms: _575  and  _577
REMARK  239  A    between atoms: _577  and  _578
REMARK  240  A    between atoms: _577  and  _580
REMARK  241  A    between atoms: _580  and  _581
REMARK  242  A    between atoms: _584  and  _586
REMARK  243  A    between atoms: _586  and  _587
REMARK  244  A    between atoms: _586  and  _589
REMARK  245  A    between atoms: _592  and  _594
REMARK  246  A    between atoms: _594  and  _595
REMARK  247  A    between atoms: _594  and  _597
REMARK  248  A    between atoms: _597  and  _598
REMARK  249  A    between atoms: _598  and  _599
REMARK  250  A    between atoms: _605  and  _606
REMARK  251  A    between atoms: _611  and  _613
REMARK  252  A    between atoms: _613  and  _614
REMARK  253  A    between atoms: _613  and  _616
REMARK  254  A    between atoms: _616  and  _617
REMARK  255  A    between atoms: _617  and  _618
REMARK                            x       y       z     vdW  Elec       q    Type
REMARK                         _______ _______ _______ _____ _____    ______ ____
ROOT
ATOM      1  O   HOH     1      19.182   1.823  23.969  0.00  0.00    +0.000 OA
ENDROOT
TORSDOF 0
REMARK  Name = ../refined-set-2016/2web/2web_pocket.pdb
REMARK  255 active torsions:
REMARK  status: ('A' for Active; 'I' for Inactive)
REMARK    1  A    between atoms: _1  and  _3
REMARK    2  A    between atoms: _3  and  _4
REMARK    3  A    between atoms: _3  and  _6
REMARK    4  A    between atoms: _6  and  _7
REMARK    5  A    between atoms: _10  and  _12
REMARK    6  A    between atoms: _12  and  _13
REMARK    7  A    between atoms: _12  and  _15
REMARK    8  A    between atoms: _15  and  _16
REMARK    9  A    between atoms: _16  and  _17
REMARK   10  A    between atoms: _20  and  _22
REMARK   11  A    between atoms: _22  and  _23
REMARK   12  A    between atoms: _22  and  _25
REMARK   13  A    between atoms: _25  and  _26
REMARK   14  A    between atoms: _26  and  _27
REMARK   15  A    between atoms: _30  and  _32
REMARK   16  A    between atoms: _32  and  _33
REMARK   17  A    between atoms: _32  and  _35
REMARK   18  A    between atoms: _35  and  _36
REMARK   19  A    between atoms: _41  and  _42
REMARK   20  A    between atoms: _44  and  _46
REMARK   21  A    between atoms: _46  and  _47
REMARK   22  A    between atoms: _46  and  _49
REMARK   23  A    between atoms: _49  and  _50
REMARK   24  A    between atoms: _55  and  _57
REMARK   25  A    between atoms: _57  and  _58
REMARK   26  A    between atoms: _57  and  _60
REMARK   27  A    between atoms: _60  and  _61
REMARK   28  A    between atoms: _67  and  _69
REMARK   29  A    between atoms: _69  and  _70
REMARK   30  A    between atoms: _69  and  _72
REMARK   31  A    between atoms: _72  and  _73
REMARK   32  A    between atoms: _76  and  _78
REMARK   33  A    between atoms: _78  and  _79
REMARK   34  A    between atoms: _78  and  _81
REMARK   35  A    between atoms: _81  and  _82
REMARK   36  A    between atoms: _85  and  _87
REMARK   37  A    between atoms: _87  and  _88
REMARK   38  A    between atoms: _90  and  _92
REMARK   39  A    between atoms: _92  and  _93
REMARK   40  A    between atoms: _92  and  _95
REMARK   41  A    between atoms: _95  and  _96
REMARK   42  A    between atoms: _98  and  _100
REMARK   43  A    between atoms: _100  and  _101
REMARK   44  A    between atoms: _104  and  _106
REMARK   45  A    between atoms: _106  and  _107
REMARK   46  A    between atoms: _106  and  _109
REMARK   47  A    between atoms: _109  and  _110
REMARK   48  A    between atoms: _113  and  _115
REMARK   49  A    between atoms: _115  and  _116
REMARK   50  A    between atoms: _115  and  _118
REMARK   51  A    between atoms: _118  and  _119
REMARK   52  A    between atoms: _129  and  _131
REMARK   53  A    between atoms: _131  and  _132
REMARK   54  A    between atoms: _131  and  _134
REMARK   55  A    between atoms: _134  and  _135
REMARK   56  A    between atoms: _138  and  _140
REMARK   57  A    between atoms: _140  and  _141
REMARK   58  A    between atoms: _140  and  _143
REMARK   59  A    between atoms: _143  and  _144
REMARK   60  A    between atoms: _146  and  _148
REMARK   61  A    between atoms: _148  and  _149
REMARK   62  A    between atoms: _148  and  _151
REMARK   63  A    between atoms: _151  and  _152
REMARK   64  A    between atoms: _157  and  _158
REMARK   65  A    between atoms: _160  and  _162
REMARK   66  A    between atoms: _162  and  _163
REMARK   67  A    between atoms: _165  and  _167
REMARK   68  A    between atoms: _167  and  _168
REMARK   69  A    between atoms: _167  and  _170
REMARK   70  A    between atoms: _170  and  _171
REMARK   71  A    between atoms: _174  and  _176
REMARK   72  A    between atoms: _176  and  _177
REMARK   73  A    between atoms: _179  and  _181
REMARK   74  A    between atoms: _181  and  _182
REMARK   75  A    between atoms: _181  and  _184
REMARK   76  A    between atoms: _184  and  _185
REMARK   77  A    between atoms: _187  and  _189
REMARK   78  A    between atoms: _189  and  _190
REMARK   79  A    between atoms: _189  and  _192
REMARK   80  A    between atoms: _192  and  _193
REMARK   81  A    between atoms: _195  and  _197
REMARK   82  A    between atoms: _197  and  _198
REMARK   83  A    between atoms: _197  and  _200
REMARK   84  A    between atoms: _200  and  _201
REMARK   85  A    between atoms: _203  and  _205
REMARK   86  A    between atoms: _205  and  _206
REMARK   87  A    between atoms: _209  and  _211
REMARK   88  A    between atoms: _211  and  _212
REMARK   89  A    between atoms: _211  and  _214
REMARK   90  A    between atoms: _214  and  _215
REMARK   91  A    between atoms: _215  and  _216
REMARK   92  A    between atoms: _221  and  _223
REMARK   93  A    between atoms: _223  and  _224
REMARK   94  A    between atoms: _223  and  _226
REMARK   95  A    between atoms: _226  and  _227
REMARK   96  A    between atoms: _233  and  _235
REMARK   97  A    between atoms: _235  and  _236
REMARK   98  A    between atoms: _235  and  _238
REMARK   99  A    between atoms: _238  and  _239
REMARK  100  A    between atoms: _239  and  _240
REMARK  101  A    between atoms: _245  and  _247
REMARK  102  A    between atoms: _247  and  _248
REMARK  103  A    between atoms: _247  and  _250
REMARK  104  A    between atoms: _250  and  _251
REMARK  105  A    between atoms: _251  and  _252
REMARK  106  A    between atoms: _257  and  _259
REMARK  107  A    between atoms: _259  and  _260
REMARK  108  A    between atoms: _259  and  _262
REMARK  109  A    between atoms: _262  and  _263
REMARK  110  A    between atoms: _266  and  _268
REMARK  111  A    between atoms: _268  and  _269
REMARK  112  A    between atoms: _268  and  _271
REMARK  113  A    between atoms: _271  and  _272
REMARK  114  A    between atoms: _275  and  _277
REMARK  115  A    between atoms: _277  and  _278
REMARK  116  A    between atoms: _277  and  _280
REMARK  117  A    between atoms: _280  and  _281
REMARK  118  A    between atoms: _286  and  _288
REMARK  119  A    between atoms: _288  and  _289
REMARK  120  A    between atoms: _288  and  _291
REMARK  121  A    between atoms: _291  and  _292
REMARK  122  A    between atoms: _297  and  _299
REMARK  123  A    between atoms: _299  and  _300
REMARK  124  A    between atoms: _302  and  _304
REMARK  125  A    between atoms: _304  and  _305
REMARK  126  A    between atoms: _304  and  _307
REMARK  127  A    between atoms: _307  and  _308
REMARK  128  A    between atoms: _311  and  _313
REMARK  129  A    between atoms: _313  and  _314
REMARK  130  A    between atoms: _316  and  _318
REMARK  131  A    between atoms: _318  and  _319
REMARK  132  A    between atoms: _318  and  _321
REMARK  133  A    between atoms: _321  and  _322
REMARK  134  A    between atoms: _325  and  _327
REMARK  135  A    between atoms: _327  and  _328
REMARK  136  A    between atoms: _331  and  _333
REMARK  137  A    between atoms: _333  and  _334
REMARK  138  A    between atoms: _333  and  _336
REMARK  139  A    between atoms: _336  and  _337
REMARK  140  A    between atoms: _340  and  _342
REMARK  141  A    between atoms: _342  and  _343
REMARK  142  A    between atoms: _342  and  _345
REMARK  143  A    between atoms: _345  and  _346
REMARK  144  A    between atoms: _349  and  _351
REMARK  145  A    between atoms: _351  and  _352
REMARK  146  A    between atoms: _351  and  _354
REMARK  147  A    between atoms: _354  and  _355
REMARK  148  A    between atoms: _355  and  _356
REMARK  149  A    between atoms: _361  and  _363
REMARK  150  A    between atoms: _363  and  _364
REMARK  151  A    between atoms: _363  and  _366
REMARK  152  A    between atoms: _366  and  _367
REMARK  153  A    between atoms: _373  and  _375
REMARK  154  A    between atoms: _375  and  _376
REMARK  155  A    between atoms: _375  and  _378
REMARK  156  A    between atoms: _378  and  _379
REMARK  157  A    between atoms: _382  and  _384
REMARK  158  A    between atoms: _384  and  _385
REMARK  159  A    between atoms: _388  and  _390
REMARK  160  A    between atoms: _390  and  _391
REMARK  161  A    between atoms: _390  and  _393
REMARK  162  A    between atoms: _393  and  _394
REMARK  163  A    between atoms: _397  and  _399
REMARK  164  A    between atoms: _399  and  _400
REMARK  165  A    between atoms: _399  and  _402
REMARK  166  A    between atoms: _402  and  _403
REMARK  167  A    between atoms: _406  and  _408
REMARK  168  A    between atoms: _408  and  _409
REMARK  169  A    between atoms: _411  and  _413
REMARK  170  A    between atoms: _413  and  _414
REMARK  171  A    between atoms: _413  and  _416
REMARK  172  A    between atoms: _416  and  _417
REMARK  173  A    between atoms: _420  and  _422
REMARK  174  A    between atoms: _422  and  _423
REMARK  175  A    between atoms: _422  and  _425
REMARK  176  A    between atoms: _425  and  _426
REMARK  177  A    between atoms: _429  and  _431
REMARK  178  A    between atoms: _431  and  _432
REMARK  179  A    between atoms: _431  and  _434
REMARK  180  A    between atoms: _434  and  _435
REMARK  181  A    between atoms: _438  and  _440
REMARK  182  A    between atoms: _440  and  _441
REMARK  183  A    between atoms: _440  and  _443
REMARK  184  A    between atoms: _443  and  _444
REMARK  185  A    between atoms: _447  and  _449
REMARK  186  A    between atoms: _449  and  _450
REMARK  187  A    between atoms: _449  and  _452
REMARK  188  A    between atoms: _452  and  _453
REMARK  189  A    between atoms: _456  and  _458
REMARK  190  A    between atoms: _458  and  _459
REMARK  191  A    between atoms: _458  and  _461
REMARK  192  A    between atoms: _461  and  _462
REMARK  193  A    between atoms: _464  and  _466
REMARK  194  A    between atoms: _466  and  _467
REMARK  195  A    between atoms: _466  and  _469
REMARK  196  A    between atoms: _469  and  _470
REMARK  197  A    between atoms: _475  and  _477
REMARK  198  A    between atoms: _477  and  _478
REMARK  199  A    between atoms: _477  and  _480
REMARK  200  A    between atoms: _480  and  _481
REMARK  201  A    between atoms: _483  and  _485
REMARK  202  A    between atoms: _485  and  _486
REMARK  203  A    between atoms: _485  and  _488
REMARK  204  A    between atoms: _488  and  _489
REMARK  205  A    between atoms: _492  and  _494
REMARK  206  A    between atoms: _494  and  _495
REMARK  207  A    between atoms: _494  and  _497
REMARK  208  A    between atoms: _497  and  _498
REMARK  209  A    between atoms: _504  and  _506
REMARK  210  A    between atoms: _506  and  _507
REMARK  211  A    between atoms: _506  and  _509
REMARK  212  A    between atoms: _509  and  _510
REMARK  213  A    between atoms: _512  and  _514
REMARK  214  A    between atoms: _514  and  _515
REMARK  215  A    between atoms: _514  and  _517
REMARK  216  A    between atoms: _517  and  _518
REMARK  217  A    between atoms: _521  and  _523
REMARK  218  A    between atoms: _523  and  _524
REMARK  219  A    between atoms: _523  and  _526
REMARK  220  A    between atoms: _526  and  _527
REMARK  221  A    between atoms: _533  and  _535
REMARK  222  A    between atoms: _535  and  _536
REMARK  223  A    between atoms: _538  and  _540
REMARK  224  A    between atoms: _540  and  _541
REMARK  225  A    between atoms: _540  and  _543
REMARK  226  A    between atoms: _543  and  _544
REMARK  227  A    between atoms: _547  and  _549
REMARK  228  A    between atoms: _549  and  _550
REMARK  229  A    between atoms: _552  and  _554
REMARK  230  A    between atoms: _554  and  _555
REMARK  231  A    between atoms: _554  and  _557
REMARK  232  A    between atoms: _557  and  _558
REMARK  233  A    between atoms: _563  and  _564
REMARK  234  A    between atoms: _566  and  _568
REMARK  235  A    between atoms: _568  and  _569
REMARK  236  A    between atoms: _568  and  _571
REMARK  237  A    between atoms: _571  and  _572
REMARK  238  A    between atoms: _575  and  _577
REMARK  239  A    between atoms: _577  and  _578
REMARK  240  A    between atoms: _577  and  _580
REMARK  241  A    between atoms: _580  and  _581
REMARK  242  A    between atoms: _584  and  _586
REMARK  243  A    between atoms: _586  and  _587
REMARK  244  A    between atoms: _586  and  _589
REMARK  245  A    between atoms: _592  and  _594
REMARK  246  A    between atoms: _594  and  _595
REMARK  247  A    between atoms: _594  and  _597
REMARK  248  A    between atoms: _597  and  _598
REMARK  249  A    between atoms: _598  and  _599
REMARK  250  A    between atoms: _605  and  _606
REMARK  251  A    between atoms: _611  and  _613
REMARK  252  A    between atoms: _613  and  _614
REMARK  253  A    between atoms: _613  and  _616
REMARK  254  A    between atoms: _616  and  _617
REMARK  255  A    between atoms: _617  and  _618
REMARK                            x       y       z     vdW  Elec       q    Type
REMARK                         _______ _______ _______ _____ _____    ______ ____
ROOT
ATOM      1  O   HOH     1      16.417   1.405  18.877  0.00  0.00    +0.000 OA
ENDROOT
TORSDOF 0
REMARK  Name = ../refined-set-2016/2web/2web_pocket.pdb
REMARK  255 active torsions:
REMARK  status: ('A' for Active; 'I' for Inactive)
REMARK    1  A    between atoms: _1  and  _3
REMARK    2  A    between atoms: _3  and  _4
REMARK    3  A    between atoms: _3  and  _6
REMARK    4  A    between atoms: _6  and  _7
REMARK    5  A    between atoms: _10  and  _12
REMARK    6  A    between atoms: _12  and  _13
REMARK    7  A    between atoms: _12  and  _15
REMARK    8  A    between atoms: _15  and  _16
REMARK    9  A    between atoms: _16  and  _17
REMARK   10  A    between atoms: _20  and  _22
REMARK   11  A    between atoms: _22  and  _23
REMARK   12  A    between atoms: _22  and  _25
REMARK   13  A    between atoms: _25  and  _26
REMARK   14  A    between atoms: _26  and  _27
REMARK   15  A    between atoms: _30  and  _32
REMARK   16  A    between atoms: _32  and  _33
REMARK   17  A    between atoms: _32  and  _35
REMARK   18  A    between atoms: _35  and  _36
REMARK   19  A    between atoms: _41  and  _42
REMARK   20  A    between atoms: _44  and  _46
REMARK   21  A    between atoms: _46  and  _47
REMARK   22  A    between atoms: _46  and  _49
REMARK   23  A    between atoms: _49  and  _50
REMARK   24  A    between atoms: _55  and  _57
REMARK   25  A    between atoms: _57  and  _58
REMARK   26  A    between atoms: _57  and  _60
REMARK   27  A    between atoms: _60  and  _61
REMARK   28  A    between atoms: _67  and  _69
REMARK   29  A    between atoms: _69  and  _70
REMARK   30  A    between atoms: _69  and  _72
REMARK   31  A    between atoms: _72  and  _73
REMARK   32  A    between atoms: _76  and  _78
REMARK   33  A    between atoms: _78  and  _79
REMARK   34  A    between atoms: _78  and  _81
REMARK   35  A    between atoms: _81  and  _82
REMARK   36  A    between atoms: _85  and  _87
REMARK   37  A    between atoms: _87  and  _88
REMARK   38  A    between atoms: _90  and  _92
REMARK   39  A    between atoms: _92  and  _93
REMARK   40  A    between atoms: _92  and  _95
REMARK   41  A    between atoms: _95  and  _96
REMARK   42  A    between atoms: _98  and  _100
REMARK   43  A    between atoms: _100  and  _101
REMARK   44  A    between atoms: _104  and  _106
REMARK   45  A    between atoms: _106  and  _107
REMARK   46  A    between atoms: _106  and  _109
REMARK   47  A    between atoms: _109  and  _110
REMARK   48  A    between atoms: _113  and  _115
REMARK   49  A    between atoms: _115  and  _116
REMARK   50  A    between atoms: _115  and  _118
REMARK   51  A    between atoms: _118  and  _119
REMARK   52  A    between atoms: _129  and  _131
REMARK   53  A    between atoms: _131  and  _132
REMARK   54  A    between atoms: _131  and  _134
REMARK   55  A    between atoms: _134  and  _135
REMARK   56  A    between atoms: _138  and  _140
REMARK   57  A    between atoms: _140  and  _141
REMARK   58  A    between atoms: _140  and  _143
REMARK   59  A    between atoms: _143  and  _144
REMARK   60  A    between atoms: _146  and  _148
REMARK   61  A    between atoms: _148  and  _149
REMARK   62  A    between atoms: _148  and  _151
REMARK   63  A    between atoms: _151  and  _152
REMARK   64  A    between atoms: _157  and  _158
REMARK   65  A    between atoms: _160  and  _162
REMARK   66  A    between atoms: _162  and  _163
REMARK   67  A    between atoms: _165  and  _167
REMARK   68  A    between atoms: _167  and  _168
REMARK   69  A    between atoms: _167  and  _170
REMARK   70  A    between atoms: _170  and  _171
REMARK   71  A    between atoms: _174  and  _176
REMARK   72  A    between atoms: _176  and  _177
REMARK   73  A    between atoms: _179  and  _181
REMARK   74  A    between atoms: _181  and  _182
REMARK   75  A    between atoms: _181  and  _184
REMARK   76  A    between atoms: _184  and  _185
REMARK   77  A    between atoms: _187  and  _189
REMARK   78  A    between atoms: _189  and  _190
REMARK   79  A    between atoms: _189  and  _192
REMARK   80  A    between atoms: _192  and  _193
REMARK   81  A    between atoms: _195  and  _197
REMARK   82  A    between atoms: _197  and  _198
REMARK   83  A    between atoms: _197  and  _200
REMARK   84  A    between atoms: _200  and  _201
REMARK   85  A    between atoms: _203  and  _205
REMARK   86  A    between atoms: _205  and  _206
REMARK   87  A    between atoms: _209  and  _211
REMARK   88  A    between atoms: _211  and  _212
REMARK   89  A    between atoms: _211  and  _214
REMARK   90  A    between atoms: _214  and  _215
REMARK   91  A    between atoms: _215  and  _216
REMARK   92  A    between atoms: _221  and  _223
REMARK   93  A    between atoms: _223  and  _224
REMARK   94  A    between atoms: _223  and  _226
REMARK   95  A    between atoms: _226  and  _227
REMARK   96  A    between atoms: _233  and  _235
REMARK   97  A    between atoms: _235  and  _236
REMARK   98  A    between atoms: _235  and  _238
REMARK   99  A    between atoms: _238  and  _239
REMARK  100  A    between atoms: _239  and  _240
REMARK  101  A    between atoms: _245  and  _247
REMARK  102  A    between atoms: _247  and  _248
REMARK  103  A    between atoms: _247  and  _250
REMARK  104  A    between atoms: _250  and  _251
REMARK  105  A    between atoms: _251  and  _252
REMARK  106  A    between atoms: _257  and  _259
REMARK  107  A    between atoms: _259  and  _260
REMARK  108  A    between atoms: _259  and  _262
REMARK  109  A    between atoms: _262  and  _263
REMARK  110  A    between atoms: _266  and  _268
REMARK  111  A    between atoms: _268  and  _269
REMARK  112  A    between atoms: _268  and  _271
REMARK  113  A    between atoms: _271  and  _272
REMARK  114  A    between atoms: _275  and  _277
REMARK  115  A    between atoms: _277  and  _278
REMARK  116  A    between atoms: _277  and  _280
REMARK  117  A    between atoms: _280  and  _281
REMARK  118  A    between atoms: _286  and  _288
REMARK  119  A    between atoms: _288  and  _289
REMARK  120  A    between atoms: _288  and  _291
REMARK  121  A    between atoms: _291  and  _292
REMARK  122  A    between atoms: _297  and  _299
REMARK  123  A    between atoms: _299  and  _300
REMARK  124  A    between atoms: _302  and  _304
REMARK  125  A    between atoms: _304  and  _305
REMARK  126  A    between atoms: _304  and  _307
REMARK  127  A    between atoms: _307  and  _308
REMARK  128  A    between atoms: _311  and  _313
REMARK  129  A    between atoms: _313  and  _314
REMARK  130  A    between atoms: _316  and  _318
REMARK  131  A    between atoms: _318  and  _319
REMARK  132  A    between atoms: _318  and  _321
REMARK  133  A    between atoms: _321  and  _322
REMARK  134  A    between atoms: _325  and  _327
REMARK  135  A    between atoms: _327  and  _328
REMARK  136  A    between atoms: _331  and  _333
REMARK  137  A    between atoms: _333  and  _334
REMARK  138  A    between atoms: _333  and  _336
REMARK  139  A    between atoms: _336  and  _337
REMARK  140  A    between atoms: _340  and  _342
REMARK  141  A    between atoms: _342  and  _343
REMARK  142  A    between atoms: _342  and  _345
REMARK  143  A    between atoms: _345  and  _346
REMARK  144  A    between atoms: _349  and  _351
REMARK  145  A    between atoms: _351  and  _352
REMARK  146  A    between atoms: _351  and  _354
REMARK  147  A    between atoms: _354  and  _355
REMARK  148  A    between atoms: _355  and  _356
REMARK  149  A    between atoms: _361  and  _363
REMARK  150  A    between atoms: _363  and  _364
REMARK  151  A    between atoms: _363  and  _366
REMARK  152  A    between atoms: _366  and  _367
REMARK  153  A    between atoms: _373  and  _375
REMARK  154  A    between atoms: _375  and  _376
REMARK  155  A    between atoms: _375  and  _378
REMARK  156  A    between atoms: _378  and  _379
REMARK  157  A    between atoms: _382  and  _384
REMARK  158  A    between atoms: _384  and  _385
REMARK  159  A    between atoms: _388  and  _390
REMARK  160  A    between atoms: _390  and  _391
REMARK  161  A    between atoms: _390  and  _393
REMARK  162  A    between atoms: _393  and  _394
REMARK  163  A    between atoms: _397  and  _399
REMARK  164  A    between atoms: _399  and  _400
REMARK  165  A    between atoms: _399  and  _402
REMARK  166  A    between atoms: _402  and  _403
REMARK  167  A    between atoms: _406  and  _408
REMARK  168  A    between atoms: _408  and  _409
REMARK  169  A    between atoms: _411  and  _413
REMARK  170  A    between atoms: _413  and  _414
REMARK  171  A    between atoms: _413  and  _416
REMARK  172  A    between atoms: _416  and  _417
REMARK  173  A    between atoms: _420  and  _422
REMARK  174  A    between atoms: _422  and  _423
REMARK  175  A    between atoms: _422  and  _425
REMARK  176  A    between atoms: _425  and  _426
REMARK  177  A    between atoms: _429  and  _431
REMARK  178  A    between atoms: _431  and  _432
REMARK  179  A    between atoms: _431  and  _434
REMARK  180  A    between atoms: _434  and  _435
REMARK  181  A    between atoms: _438  and  _440
REMARK  182  A    between atoms: _440  and  _441
REMARK  183  A    between atoms: _440  and  _443
REMARK  184  A    between atoms: _443  and  _444
REMARK  185  A    between atoms: _447  and  _449
REMARK  186  A    between atoms: _449  and  _450
REMARK  187  A    between atoms: _449  and  _452
REMARK  188  A    between atoms: _452  and  _453
REMARK  189  A    between atoms: _456  and  _458
REMARK  190  A    between atoms: _458  and  _459
REMARK  191  A    between atoms: _458  and  _461
REMARK  192  A    between atoms: _461  and  _462
REMARK  193  A    between atoms: _464  and  _466
REMARK  194  A    between atoms: _466  and  _467
REMARK  195  A    between atoms: _466  and  _469
REMARK  196  A    between atoms: _469  and  _470
REMARK  197  A    between atoms: _475  and  _477
REMARK  198  A    between atoms: _477  and  _478
REMARK  199  A    between atoms: _477  and  _480
REMARK  200  A    between atoms: _480  and  _481
REMARK  201  A    between atoms: _483  and  _485
REMARK  202  A    between atoms: _485  and  _486
REMARK  203  A    between atoms: _485  and  _488
REMARK  204  A    between atoms: _488  and  _489
REMARK  205  A    between atoms: _492  and  _494
REMARK  206  A    between atoms: _494  and  _495
REMARK  207  A    between atoms: _494  and  _497
REMARK  208  A    between atoms: _497  and  _498
REMARK  209  A    between atoms: _504  and  _506
REMARK  210  A    between atoms: _506  and  _507
REMARK  211  A    between atoms: _506  and  _509
REMARK  212  A    between atoms: _509  and  _510
REMARK  213  A    between atoms: _512  and  _514
REMARK  214  A    between atoms: _514  and  _515
REMARK  215  A    between atoms: _514  and  _517
REMARK  216  A    between atoms: _517  and  _518
REMARK  217  A    between atoms: _521  and  _523
REMARK  218  A    between atoms: _523  and  _524
REMARK  219  A    between atoms: _523  and  _526
REMARK  220  A    between atoms: _526  and  _527
REMARK  221  A    between atoms: _533  and  _535
REMARK  222  A    between atoms: _535  and  _536
REMARK  223  A    between atoms: _538  and  _540
REMARK  224  A    between atoms: _540  and  _541
REMARK  225  A    between atoms: _540  and  _543
REMARK  226  A    between atoms: _543  and  _544
REMARK  227  A    between atoms: _547  and  _549
REMARK  228  A    between atoms: _549  and  _550
REMARK  229  A    between atoms: _552  and  _554
REMARK  230  A    between atoms: _554  and  _555
REMARK  231  A    between atoms: _554  and  _557
REMARK  232  A    between atoms: _557  and  _558
REMARK  233  A    between atoms: _563  and  _564
REMARK  234  A    between atoms: _566  and  _568
REMARK  235  A    between atoms: _568  and  _569
REMARK  236  A    between atoms: _568  and  _571
REMARK  237  A    between atoms: _571  and  _572
REMARK  238  A    between atoms: _575  and  _577
REMARK  239  A    between atoms: _577  and  _578
REMARK  240  A    between atoms: _577  and  _580
REMARK  241  A    between atoms: _580  and  _581
REMARK  242  A    between atoms: _584  and  _586
REMARK  243  A    between atoms: _586  and  _587
REMARK  244  A    between atoms: _586  and  _589
REMARK  245  A    between atoms: _592  and  _594
REMARK  246  A    between atoms: _594  and  _595
REMARK  247  A    between atoms: _594  and  _597
REMARK  248  A    between atoms: _597  and  _598
REMARK  249  A    between atoms: _598  and  _599
REMARK  250  A    between atoms: _605  and  _606
REMARK  251  A    between atoms: _611  and  _613
REMARK  252  A    between atoms: _613  and  _614
REMARK  253  A    between atoms: _613  and  _616
REMARK  254  A    between atoms: _616  and  _617
REMARK  255  A    between atoms: _617  and  _618
REMARK                            x       y       z     vdW  Elec       q    Type
REMARK                         _______ _______ _______ _____ _____    ______ ____
ROOT
ATOM      1  O   HOH     1      20.735   0.761  15.675  0.00  0.00    +0.000 OA
ENDROOT
TORSDOF 0
REMARK  Name = ../refined-set-2016/2web/2web_pocket.pdb
REMARK  255 active torsions:
REMARK  status: ('A' for Active; 'I' for Inactive)
REMARK    1  A    between atoms: _1  and  _3
REMARK    2  A    between atoms: _3  and  _4
REMARK    3  A    between atoms: _3  and  _6
REMARK    4  A    between atoms: _6  and  _7
REMARK    5  A    between atoms: _10  and  _12
REMARK    6  A    between atoms: _12  and  _13
REMARK    7  A    between atoms: _12  and  _15
REMARK    8  A    between atoms: _15  and  _16
REMARK    9  A    between atoms: _16  and  _17
REMARK   10  A    between atoms: _20  and  _22
REMARK   11  A    between atoms: _22  and  _23
REMARK   12  A    between atoms: _22  and  _25
REMARK   13  A    between atoms: _25  and  _26
REMARK   14  A    between atoms: _26  and  _27
REMARK   15  A    between atoms: _30  and  _32
REMARK   16  A    between atoms: _32  and  _33
REMARK   17  A    between atoms: _32  and  _35
REMARK   18  A    between atoms: _35  and  _36
REMARK   19  A    between atoms: _41  and  _42
REMARK   20  A    between atoms: _44  and  _46
REMARK   21  A    between atoms: _46  and  _47
REMARK   22  A    between atoms: _46  and  _49
REMARK   23  A    between atoms: _49  and  _50
REMARK   24  A    between atoms: _55  and  _57
REMARK   25  A    between atoms: _57  and  _58
REMARK   26  A    between atoms: _57  and  _60
REMARK   27  A    between atoms: _60  and  _61
REMARK   28  A    between atoms: _67  and  _69
REMARK   29  A    between atoms: _69  and  _70
REMARK   30  A    between atoms: _69  and  _72
REMARK   31  A    between atoms: _72  and  _73
REMARK   32  A    between atoms: _76  and  _78
REMARK   33  A    between atoms: _78  and  _79
REMARK   34  A    between atoms: _78  and  _81
REMARK   35  A    between atoms: _81  and  _82
REMARK   36  A    between atoms: _85  and  _87
REMARK   37  A    between atoms: _87  and  _88
REMARK   38  A    between atoms: _90  and  _92
REMARK   39  A    between atoms: _92  and  _93
REMARK   40  A    between atoms: _92  and  _95
REMARK   41  A    between atoms: _95  and  _96
REMARK   42  A    between atoms: _98  and  _100
REMARK   43  A    between atoms: _100  and  _101
REMARK   44  A    between atoms: _104  and  _106
REMARK   45  A    between atoms: _106  and  _107
REMARK   46  A    between atoms: _106  and  _109
REMARK   47  A    between atoms: _109  and  _110
REMARK   48  A    between atoms: _113  and  _115
REMARK   49  A    between atoms: _115  and  _116
REMARK   50  A    between atoms: _115  and  _118
REMARK   51  A    between atoms: _118  and  _119
REMARK   52  A    between atoms: _129  and  _131
REMARK   53  A    between atoms: _131  and  _132
REMARK   54  A    between atoms: _131  and  _134
REMARK   55  A    between atoms: _134  and  _135
REMARK   56  A    between atoms: _138  and  _140
REMARK   57  A    between atoms: _140  and  _141
REMARK   58  A    between atoms: _140  and  _143
REMARK   59  A    between atoms: _143  and  _144
REMARK   60  A    between atoms: _146  and  _148
REMARK   61  A    between atoms: _148  and  _149
REMARK   62  A    between atoms: _148  and  _151
REMARK   63  A    between atoms: _151  and  _152
REMARK   64  A    between atoms: _157  and  _158
REMARK   65  A    between atoms: _160  and  _162
REMARK   66  A    between atoms: _162  and  _163
REMARK   67  A    between atoms: _165  and  _167
REMARK   68  A    between atoms: _167  and  _168
REMARK   69  A    between atoms: _167  and  _170
REMARK   70  A    between atoms: _170  and  _171
REMARK   71  A    between atoms: _174  and  _176
REMARK   72  A    between atoms: _176  and  _177
REMARK   73  A    between atoms: _179  and  _181
REMARK   74  A    between atoms: _181  and  _182
REMARK   75  A    between atoms: _181  and  _184
REMARK   76  A    between atoms: _184  and  _185
REMARK   77  A    between atoms: _187  and  _189
REMARK   78  A    between atoms: _189  and  _190
REMARK   79  A    between atoms: _189  and  _192
REMARK   80  A    between atoms: _192  and  _193
REMARK   81  A    between atoms: _195  and  _197
REMARK   82  A    between atoms: _197  and  _198
REMARK   83  A    between atoms: _197  and  _200
REMARK   84  A    between atoms: _200  and  _201
REMARK   85  A    between atoms: _203  and  _205
REMARK   86  A    between atoms: _205  and  _206
REMARK   87  A    between atoms: _209  and  _211
REMARK   88  A    between atoms: _211  and  _212
REMARK   89  A    between atoms: _211  and  _214
REMARK   90  A    between atoms: _214  and  _215
REMARK   91  A    between atoms: _215  and  _216
REMARK   92  A    between atoms: _221  and  _223
REMARK   93  A    between atoms: _223  and  _224
REMARK   94  A    between atoms: _223  and  _226
REMARK   95  A    between atoms: _226  and  _227
REMARK   96  A    between atoms: _233  and  _235
REMARK   97  A    between atoms: _235  and  _236
REMARK   98  A    between atoms: _235  and  _238
REMARK   99  A    between atoms: _238  and  _239
REMARK  100  A    between atoms: _239  and  _240
REMARK  101  A    between atoms: _245  and  _247
REMARK  102  A    between atoms: _247  and  _248
REMARK  103  A    between atoms: _247  and  _250
REMARK  104  A    between atoms: _250  and  _251
REMARK  105  A    between atoms: _251  and  _252
REMARK  106  A    between atoms: _257  and  _259
REMARK  107  A    between atoms: _259  and  _260
REMARK  108  A    between atoms: _259  and  _262
REMARK  109  A    between atoms: _262  and  _263
REMARK  110  A    between atoms: _266  and  _268
REMARK  111  A    between atoms: _268  and  _269
REMARK  112  A    between atoms: _268  and  _271
REMARK  113  A    between atoms: _271  and  _272
REMARK  114  A    between atoms: _275  and  _277
REMARK  115  A    between atoms: _277  and  _278
REMARK  116  A    between atoms: _277  and  _280
REMARK  117  A    between atoms: _280  and  _281
REMARK  118  A    between atoms: _286  and  _288
REMARK  119  A    between atoms: _288  and  _289
REMARK  120  A    between atoms: _288  and  _291
REMARK  121  A    between atoms: _291  and  _292
REMARK  122  A    between atoms: _297  and  _299
REMARK  123  A    between atoms: _299  and  _300
REMARK  124  A    between atoms: _302  and  _304
REMARK  125  A    between atoms: _304  and  _305
REMARK  126  A    between atoms: _304  and  _307
REMARK  127  A    between atoms: _307  and  _308
REMARK  128  A    between atoms: _311  and  _313
REMARK  129  A    between atoms: _313  and  _314
REMARK  130  A    between atoms: _316  and  _318
REMARK  131  A    between atoms: _318  and  _319
REMARK  132  A    between atoms: _318  and  _321
REMARK  133  A    between atoms: _321  and  _322
REMARK  134  A    between atoms: _325  and  _327
REMARK  135  A    between atoms: _327  and  _328
REMARK  136  A    between atoms: _331  and  _333
REMARK  137  A    between atoms: _333  and  _334
REMARK  138  A    between atoms: _333  and  _336
REMARK  139  A    between atoms: _336  and  _337
REMARK  140  A    between atoms: _340  and  _342
REMARK  141  A    between atoms: _342  and  _343
REMARK  142  A    between atoms: _342  and  _345
REMARK  143  A    between atoms: _345  and  _346
REMARK  144  A    between atoms: _349  and  _351
REMARK  145  A    between atoms: _351  and  _352
REMARK  146  A    between atoms: _351  and  _354
REMARK  147  A    between atoms: _354  and  _355
REMARK  148  A    between atoms: _355  and  _356
REMARK  149  A    between atoms: _361  and  _363
REMARK  150  A    between atoms: _363  and  _364
REMARK  151  A    between atoms: _363  and  _366
REMARK  152  A    between atoms: _366  and  _367
REMARK  153  A    between atoms: _373  and  _375
REMARK  154  A    between atoms: _375  and  _376
REMARK  155  A    between atoms: _375  and  _378
REMARK  156  A    between atoms: _378  and  _379
REMARK  157  A    between atoms: _382  and  _384
REMARK  158  A    between atoms: _384  and  _385
REMARK  159  A    between atoms: _388  and  _390
REMARK  160  A    between atoms: _390  and  _391
REMARK  161  A    between atoms: _390  and  _393
REMARK  162  A    between atoms: _393  and  _394
REMARK  163  A    between atoms: _397  and  _399
REMARK  164  A    between atoms: _399  and  _400
REMARK  165  A    between atoms: _399  and  _402
REMARK  166  A    between atoms: _402  and  _403
REMARK  167  A    between atoms: _406  and  _408
REMARK  168  A    between atoms: _408  and  _409
REMARK  169  A    between atoms: _411  and  _413
REMARK  170  A    between atoms: _413  and  _414
REMARK  171  A    between atoms: _413  and  _416
REMARK  172  A    between atoms: _416  and  _417
REMARK  173  A    between atoms: _420  and  _422
REMARK  174  A    between atoms: _422  and  _423
REMARK  175  A    between atoms: _422  and  _425
REMARK  176  A    between atoms: _425  and  _426
REMARK  177  A    between atoms: _429  and  _431
REMARK  178  A    between atoms: _431  and  _432
REMARK  179  A    between atoms: _431  and  _434
REMARK  180  A    between atoms: _434  and  _435
REMARK  181  A    between atoms: _438  and  _440
REMARK  182  A    between atoms: _440  and  _441
REMARK  183  A    between atoms: _440  and  _443
REMARK  184  A    between atoms: _443  and  _444
REMARK  185  A    between atoms: _447  and  _449
REMARK  186  A    between atoms: _449  and  _450
REMARK  187  A    between atoms: _449  and  _452
REMARK  188  A    between atoms: _452  and  _453
REMARK  189  A    between atoms: _456  and  _458
REMARK  190  A    between atoms: _458  and  _459
REMARK  191  A    between atoms: _458  and  _461
REMARK  192  A    between atoms: _461  and  _462
REMARK  193  A    between atoms: _464  and  _466
REMARK  194  A    between atoms: _466  and  _467
REMARK  195  A    between atoms: _466  and  _469
REMARK  196  A    between atoms: _469  and  _470
REMARK  197  A    between atoms: _475  and  _477
REMARK  198  A    between atoms: _477  and  _478
REMARK  199  A    between atoms: _477  and  _480
REMARK  200  A    between atoms: _480  and  _481
REMARK  201  A    between atoms: _483  and  _485
REMARK  202  A    between atoms: _485  and  _486
REMARK  203  A    between atoms: _485  and  _488
REMARK  204  A    between atoms: _488  and  _489
REMARK  205  A    between atoms: _492  and  _494
REMARK  206  A    between atoms: _494  and  _495
REMARK  207  A    between atoms: _494  and  _497
REMARK  208  A    between atoms: _497  and  _498
REMARK  209  A    between atoms: _504  and  _506
REMARK  210  A    between atoms: _506  and  _507
REMARK  211  A    between atoms: _506  and  _509
REMARK  212  A    between atoms: _509  and  _510
REMARK  213  A    between atoms: _512  and  _514
REMARK  214  A    between atoms: _514  and  _515
REMARK  215  A    between atoms: _514  and  _517
REMARK  216  A    between atoms: _517  and  _518
REMARK  217  A    between atoms: _521  and  _523
REMARK  218  A    between atoms: _523  and  _524
REMARK  219  A    between atoms: _523  and  _526
REMARK  220  A    between atoms: _526  and  _527
REMARK  221  A    between atoms: _533  and  _535
REMARK  222  A    between atoms: _535  and  _536
REMARK  223  A    between atoms: _538  and  _540
REMARK  224  A    between atoms: _540  and  _541
REMARK  225  A    between atoms: _540  and  _543
REMARK  226  A    between atoms: _543  and  _544
REMARK  227  A    between atoms: _547  and  _549
REMARK  228  A    between atoms: _549  and  _550
REMARK  229  A    between atoms: _552  and  _554
REMARK  230  A    between atoms: _554  and  _555
REMARK  231  A    between atoms: _554  and  _557
REMARK  232  A    between atoms: _557  and  _558
REMARK  233  A    between atoms: _563  and  _564
REMARK  234  A    between atoms: _566  and  _568
REMARK  235  A    between atoms: _568  and  _569
REMARK  236  A    between atoms: _568  and  _571
REMARK  237  A    between atoms: _571  and  _572
REMARK  238  A    between atoms: _575  and  _577
REMARK  239  A    between atoms: _577  and  _578
REMARK  240  A    between atoms: _577  and  _580
REMARK  241  A    between atoms: _580  and  _581
REMARK  242  A    between atoms: _584  and  _586
REMARK  243  A    between atoms: _586  and  _587
REMARK  244  A    between atoms: _586  and  _589
REMARK  245  A    between atoms: _592  and  _594
REMARK  246  A    between atoms: _594  and  _595
REMARK  247  A    between atoms: _594  and  _597
REMARK  248  A    between atoms: _597  and  _598
REMARK  249  A    between atoms: _598  and  _599
REMARK  250  A    between atoms: _605  and  _606
REMARK  251  A    between atoms: _611  and  _613
REMARK  252  A    between atoms: _613  and  _614
REMARK  253  A    between atoms: _613  and  _616
REMARK  254  A    between atoms: _616  and  _617
REMARK  255  A    between atoms: _617  and  _618
REMARK                            x       y       z     vdW  Elec       q    Type
REMARK                         _______ _______ _______ _____ _____    ______ ____
ROOT
ATOM      1  O   HOH     1      21.889   6.924  30.200  0.00  0.00    +0.000 OA
ENDROOT
TORSDOF 0
REMARK  Name = ../refined-set-2016/2web/2web_pocket.pdb
REMARK  255 active torsions:
REMARK  status: ('A' for Active; 'I' for Inactive)
REMARK    1  A    between atoms: _1  and  _3
REMARK    2  A    between atoms: _3  and  _4
REMARK    3  A    between atoms: _3  and  _6
REMARK    4  A    between atoms: _6  and  _7
REMARK    5  A    between atoms: _10  and  _12
REMARK    6  A    between atoms: _12  and  _13
REMARK    7  A    between atoms: _12  and  _15
REMARK    8  A    between atoms: _15  and  _16
REMARK    9  A    between atoms: _16  and  _17
REMARK   10  A    between atoms: _20  and  _22
REMARK   11  A    between atoms: _22  and  _23
REMARK   12  A    between atoms: _22  and  _25
REMARK   13  A    between atoms: _25  and  _26
REMARK   14  A    between atoms: _26  and  _27
REMARK   15  A    between atoms: _30  and  _32
REMARK   16  A    between atoms: _32  and  _33
REMARK   17  A    between atoms: _32  and  _35
REMARK   18  A    between atoms: _35  and  _36
REMARK   19  A    between atoms: _41  and  _42
REMARK   20  A    between atoms: _44  and  _46
REMARK   21  A    between atoms: _46  and  _47
REMARK   22  A    between atoms: _46  and  _49
REMARK   23  A    between atoms: _49  and  _50
REMARK   24  A    between atoms: _55  and  _57
REMARK   25  A    between atoms: _57  and  _58
REMARK   26  A    between atoms: _57  and  _60
REMARK   27  A    between atoms: _60  and  _61
REMARK   28  A    between atoms: _67  and  _69
REMARK   29  A    between atoms: _69  and  _70
REMARK   30  A    between atoms: _69  and  _72
REMARK   31  A    between atoms: _72  and  _73
REMARK   32  A    between atoms: _76  and  _78
REMARK   33  A    between atoms: _78  and  _79
REMARK   34  A    between atoms: _78  and  _81
REMARK   35  A    between atoms: _81  and  _82
REMARK   36  A    between atoms: _85  and  _87
REMARK   37  A    between atoms: _87  and  _88
REMARK   38  A    between atoms: _90  and  _92
REMARK   39  A    between atoms: _92  and  _93
REMARK   40  A    between atoms: _92  and  _95
REMARK   41  A    between atoms: _95  and  _96
REMARK   42  A    between atoms: _98  and  _100
REMARK   43  A    between atoms: _100  and  _101
REMARK   44  A    between atoms: _104  and  _106
REMARK   45  A    between atoms: _106  and  _107
REMARK   46  A    between atoms: _106  and  _109
REMARK   47  A    between atoms: _109  and  _110
REMARK   48  A    between atoms: _113  and  _115
REMARK   49  A    between atoms: _115  and  _116
REMARK   50  A    between atoms: _115  and  _118
REMARK   51  A    between atoms: _118  and  _119
REMARK   52  A    between atoms: _129  and  _131
REMARK   53  A    between atoms: _131  and  _132
REMARK   54  A    between atoms: _131  and  _134
REMARK   55  A    between atoms: _134  and  _135
REMARK   56  A    between atoms: _138  and  _140
REMARK   57  A    between atoms: _140  and  _141
REMARK   58  A    between atoms: _140  and  _143
REMARK   59  A    between atoms: _143  and  _144
REMARK   60  A    between atoms: _146  and  _148
REMARK   61  A    between atoms: _148  and  _149
REMARK   62  A    between atoms: _148  and  _151
REMARK   63  A    between atoms: _151  and  _152
REMARK   64  A    between atoms: _157  and  _158
REMARK   65  A    between atoms: _160  and  _162
REMARK   66  A    between atoms: _162  and  _163
REMARK   67  A    between atoms: _165  and  _167
REMARK   68  A    between atoms: _167  and  _168
REMARK   69  A    between atoms: _167  and  _170
REMARK   70  A    between atoms: _170  and  _171
REMARK   71  A    between atoms: _174  and  _176
REMARK   72  A    between atoms: _176  and  _177
REMARK   73  A    between atoms: _179  and  _181
REMARK   74  A    between atoms: _181  and  _182
REMARK   75  A    between atoms: _181  and  _184
REMARK   76  A    between atoms: _184  and  _185
REMARK   77  A    between atoms: _187  and  _189
REMARK   78  A    between atoms: _189  and  _190
REMARK   79  A    between atoms: _189  and  _192
REMARK   80  A    between atoms: _192  and  _193
REMARK   81  A    between atoms: _195  and  _197
REMARK   82  A    between atoms: _197  and  _198
REMARK   83  A    between atoms: _197  and  _200
REMARK   84  A    between atoms: _200  and  _201
REMARK   85  A    between atoms: _203  and  _205
REMARK   86  A    between atoms: _205  and  _206
REMARK   87  A    between atoms: _209  and  _211
REMARK   88  A    between atoms: _211  and  _212
REMARK   89  A    between atoms: _211  and  _214
REMARK   90  A    between atoms: _214  and  _215
REMARK   91  A    between atoms: _215  and  _216
REMARK   92  A    between atoms: _221  and  _223
REMARK   93  A    between atoms: _223  and  _224
REMARK   94  A    between atoms: _223  and  _226
REMARK   95  A    between atoms: _226  and  _227
REMARK   96  A    between atoms: _233  and  _235
REMARK   97  A    between atoms: _235  and  _236
REMARK   98  A    between atoms: _235  and  _238
REMARK   99  A    between atoms: _238  and  _239
REMARK  100  A    between atoms: _239  and  _240
REMARK  101  A    between atoms: _245  and  _247
REMARK  102  A    between atoms: _247  and  _248
REMARK  103  A    between atoms: _247  and  _250
REMARK  104  A    between atoms: _250  and  _251
REMARK  105  A    between atoms: _251  and  _252
REMARK  106  A    between atoms: _257  and  _259
REMARK  107  A    between atoms: _259  and  _260
REMARK  108  A    between atoms: _259  and  _262
REMARK  109  A    between atoms: _262  and  _263
REMARK  110  A    between atoms: _266  and  _268
REMARK  111  A    between atoms: _268  and  _269
REMARK  112  A    between atoms: _268  and  _271
REMARK  113  A    between atoms: _271  and  _272
REMARK  114  A    between atoms: _275  and  _277
REMARK  115  A    between atoms: _277  and  _278
REMARK  116  A    between atoms: _277  and  _280
REMARK  117  A    between atoms: _280  and  _281
REMARK  118  A    between atoms: _286  and  _288
REMARK  119  A    between atoms: _288  and  _289
REMARK  120  A    between atoms: _288  and  _291
REMARK  121  A    between atoms: _291  and  _292
REMARK  122  A    between atoms: _297  and  _299
REMARK  123  A    between atoms: _299  and  _300
REMARK  124  A    between atoms: _302  and  _304
REMARK  125  A    between atoms: _304  and  _305
REMARK  126  A    between atoms: _304  and  _307
REMARK  127  A    between atoms: _307  and  _308
REMARK  128  A    between atoms: _311  and  _313
REMARK  129  A    between atoms: _313  and  _314
REMARK  130  A    between atoms: _316  and  _318
REMARK  131  A    between atoms: _318  and  _319
REMARK  132  A    between atoms: _318  and  _321
REMARK  133  A    between atoms: _321  and  _322
REMARK  134  A    between atoms: _325  and  _327
REMARK  135  A    between atoms: _327  and  _328
REMARK  136  A    between atoms: _331  and  _333
REMARK  137  A    between atoms: _333  and  _334
REMARK  138  A    between atoms: _333  and  _336
REMARK  139  A    between atoms: _336  and  _337
REMARK  140  A    between atoms: _340  and  _342
REMARK  141  A    between atoms: _342  and  _343
REMARK  142  A    between atoms: _342  and  _345
REMARK  143  A    between atoms: _345  and  _346
REMARK  144  A    between atoms: _349  and  _351
REMARK  145  A    between atoms: _351  and  _352
REMARK  146  A    between atoms: _351  and  _354
REMARK  147  A    between atoms: _354  and  _355
REMARK  148  A    between atoms: _355  and  _356
REMARK  149  A    between atoms: _361  and  _363
REMARK  150  A    between atoms: _363  and  _364
REMARK  151  A    between atoms: _363  and  _366
REMARK  152  A    between atoms: _366  and  _367
REMARK  153  A    between atoms: _373  and  _375
REMARK  154  A    between atoms: _375  and  _376
REMARK  155  A    between atoms: _375  and  _378
REMARK  156  A    between atoms: _378  and  _379
REMARK  157  A    between atoms: _382  and  _384
REMARK  158  A    between atoms: _384  and  _385
REMARK  159  A    between atoms: _388  and  _390
REMARK  160  A    between atoms: _390  and  _391
REMARK  161  A    between atoms: _390  and  _393
REMARK  162  A    between atoms: _393  and  _394
REMARK  163  A    between atoms: _397  and  _399
REMARK  164  A    between atoms: _399  and  _400
REMARK  165  A    between atoms: _399  and  _402
REMARK  166  A    between atoms: _402  and  _403
REMARK  167  A    between atoms: _406  and  _408
REMARK  168  A    between atoms: _408  and  _409
REMARK  169  A    between atoms: _411  and  _413
REMARK  170  A    between atoms: _413  and  _414
REMARK  171  A    between atoms: _413  and  _416
REMARK  172  A    between atoms: _416  and  _417
REMARK  173  A    between atoms: _420  and  _422
REMARK  174  A    between atoms: _422  and  _423
REMARK  175  A    between atoms: _422  and  _425
REMARK  176  A    between atoms: _425  and  _426
REMARK  177  A    between atoms: _429  and  _431
REMARK  178  A    between atoms: _431  and  _432
REMARK  179  A    between atoms: _431  and  _434
REMARK  180  A    between atoms: _434  and  _435
REMARK  181  A    between atoms: _438  and  _440
REMARK  182  A    between atoms: _440  and  _441
REMARK  183  A    between atoms: _440  and  _443
REMARK  184  A    between atoms: _443  and  _444
REMARK  185  A    between atoms: _447  and  _449
REMARK  186  A    between atoms: _449  and  _450
REMARK  187  A    between atoms: _449  and  _452
REMARK  188  A    between atoms: _452  and  _453
REMARK  189  A    between atoms: _456  and  _458
REMARK  190  A    between atoms: _458  and  _459
REMARK  191  A    between atoms: _458  and  _461
REMARK  192  A    between atoms: _461  and  _462
REMARK  193  A    between atoms: _464  and  _466
REMARK  194  A    between atoms: _466  and  _467
REMARK  195  A    between atoms: _466  and  _469
REMARK  196  A    between atoms: _469  and  _470
REMARK  197  A    between atoms: _475  and  _477
REMARK  198  A    between atoms: _477  and  _478
REMARK  199  A    between atoms: _477  and  _480
REMARK  200  A    between atoms: _480  and  _481
REMARK  201  A    between atoms: _483  and  _485
REMARK  202  A    between atoms: _485  and  _486
REMARK  203  A    between atoms: _485  and  _488
REMARK  204  A    between atoms: _488  and  _489
REMARK  205  A    between atoms: _492  and  _494
REMARK  206  A    between atoms: _494  and  _495
REMARK  207  A    between atoms: _494  and  _497
REMARK  208  A    between atoms: _497  and  _498
REMARK  209  A    between atoms: _504  and  _506
REMARK  210  A    between atoms: _506  and  _507
REMARK  211  A    between atoms: _506  and  _509
REMARK  212  A    between atoms: _509  and  _510
REMARK  213  A    between atoms: _512  and  _514
REMARK  214  A    between atoms: _514  and  _515
REMARK  215  A    between atoms: _514  and  _517
REMARK  216  A    between atoms: _517  and  _518
REMARK  217  A    between atoms: _521  and  _523
REMARK  218  A    between atoms: _523  and  _524
REMARK  219  A    between atoms: _523  and  _526
REMARK  220  A    between atoms: _526  and  _527
REMARK  221  A    between atoms: _533  and  _535
REMARK  222  A    between atoms: _535  and  _536
REMARK  223  A    between atoms: _538  and  _540
REMARK  224  A    between atoms: _540  and  _541
REMARK  225  A    between atoms: _540  and  _543
REMARK  226  A    between atoms: _543  and  _544
REMARK  227  A    between atoms: _547  and  _549
REMARK  228  A    between atoms: _549  and  _550
REMARK  229  A    between atoms: _552  and  _554
REMARK  230  A    between atoms: _554  and  _555
REMARK  231  A    between atoms: _554  and  _557
REMARK  232  A    between atoms: _557  and  _558
REMARK  233  A    between atoms: _563  and  _564
REMARK  234  A    between atoms: _566  and  _568
REMARK  235  A    between atoms: _568  and  _569
REMARK  236  A    between atoms: _568  and  _571
REMARK  237  A    between atoms: _571  and  _572
REMARK  238  A    between atoms: _575  and  _577
REMARK  239  A    between atoms: _577  and  _578
REMARK  240  A    between atoms: _577  and  _580
REMARK  241  A    between atoms: _580  and  _581
REMARK  242  A    between atoms: _584  and  _586
REMARK  243  A    between atoms: _586  and  _587
REMARK  244  A    between atoms: _586  and  _589
REMARK  245  A    between atoms: _592  and  _594
REMARK  246  A    between atoms: _594  and  _595
REMARK  247  A    between atoms: _594  and  _597
REMARK  248  A    between atoms: _597  and  _598
REMARK  249  A    between atoms: _598  and  _599
REMARK  250  A    between atoms: _605  and  _606
REMARK  251  A    between atoms: _611  and  _613
REMARK  252  A    between atoms: _613  and  _614
REMARK  253  A    between atoms: _613  and  _616
REMARK  254  A    between atoms: _616  and  _617
REMARK  255  A    between atoms: _617  and  _618
REMARK                            x       y       z     vdW  Elec       q    Type
REMARK                         _______ _______ _______ _____ _____    ______ ____
ROOT
ATOM      1  O   HOH     1      21.112  -0.481  18.861  0.00  0.00    +0.000 OA
ENDROOT
TORSDOF 0
REMARK  Name = ../refined-set-2016/2web/2web_pocket.pdb
REMARK  255 active torsions:
REMARK  status: ('A' for Active; 'I' for Inactive)
REMARK    1  A    between atoms: _1  and  _3
REMARK    2  A    between atoms: _3  and  _4
REMARK    3  A    between atoms: _3  and  _6
REMARK    4  A    between atoms: _6  and  _7
REMARK    5  A    between atoms: _10  and  _12
REMARK    6  A    between atoms: _12  and  _13
REMARK    7  A    between atoms: _12  and  _15
REMARK    8  A    between atoms: _15  and  _16
REMARK    9  A    between atoms: _16  and  _17
REMARK   10  A    between atoms: _20  and  _22
REMARK   11  A    between atoms: _22  and  _23
REMARK   12  A    between atoms: _22  and  _25
REMARK   13  A    between atoms: _25  and  _26
REMARK   14  A    between atoms: _26  and  _27
REMARK   15  A    between atoms: _30  and  _32
REMARK   16  A    between atoms: _32  and  _33
REMARK   17  A    between atoms: _32  and  _35
REMARK   18  A    between atoms: _35  and  _36
REMARK   19  A    between atoms: _41  and  _42
REMARK   20  A    between atoms: _44  and  _46
REMARK   21  A    between atoms: _46  and  _47
REMARK   22  A    between atoms: _46  and  _49
REMARK   23  A    between atoms: _49  and  _50
REMARK   24  A    between atoms: _55  and  _57
REMARK   25  A    between atoms: _57  and  _58
REMARK   26  A    between atoms: _57  and  _60
REMARK   27  A    between atoms: _60  and  _61
REMARK   28  A    between atoms: _67  and  _69
REMARK   29  A    between atoms: _69  and  _70
REMARK   30  A    between atoms: _69  and  _72
REMARK   31  A    between atoms: _72  and  _73
REMARK   32  A    between atoms: _76  and  _78
REMARK   33  A    between atoms: _78  and  _79
REMARK   34  A    between atoms: _78  and  _81
REMARK   35  A    between atoms: _81  and  _82
REMARK   36  A    between atoms: _85  and  _87
REMARK   37  A    between atoms: _87  and  _88
REMARK   38  A    between atoms: _90  and  _92
REMARK   39  A    between atoms: _92  and  _93
REMARK   40  A    between atoms: _92  and  _95
REMARK   41  A    between atoms: _95  and  _96
REMARK   42  A    between atoms: _98  and  _100
REMARK   43  A    between atoms: _100  and  _101
REMARK   44  A    between atoms: _104  and  _106
REMARK   45  A    between atoms: _106  and  _107
REMARK   46  A    between atoms: _106  and  _109
REMARK   47  A    between atoms: _109  and  _110
REMARK   48  A    between atoms: _113  and  _115
REMARK   49  A    between atoms: _115  and  _116
REMARK   50  A    between atoms: _115  and  _118
REMARK   51  A    between atoms: _118  and  _119
REMARK   52  A    between atoms: _129  and  _131
REMARK   53  A    between atoms: _131  and  _132
REMARK   54  A    between atoms: _131  and  _134
REMARK   55  A    between atoms: _134  and  _135
REMARK   56  A    between atoms: _138  and  _140
REMARK   57  A    between atoms: _140  and  _141
REMARK   58  A    between atoms: _140  and  _143
REMARK   59  A    between atoms: _143  and  _144
REMARK   60  A    between atoms: _146  and  _148
REMARK   61  A    between atoms: _148  and  _149
REMARK   62  A    between atoms: _148  and  _151
REMARK   63  A    between atoms: _151  and  _152
REMARK   64  A    between atoms: _157  and  _158
REMARK   65  A    between atoms: _160  and  _162
REMARK   66  A    between atoms: _162  and  _163
REMARK   67  A    between atoms: _165  and  _167
REMARK   68  A    between atoms: _167  and  _168
REMARK   69  A    between atoms: _167  and  _170
REMARK   70  A    between atoms: _170  and  _171
REMARK   71  A    between atoms: _174  and  _176
REMARK   72  A    between atoms: _176  and  _177
REMARK   73  A    between atoms: _179  and  _181
REMARK   74  A    between atoms: _181  and  _182
REMARK   75  A    between atoms: _181  and  _184
REMARK   76  A    between atoms: _184  and  _185
REMARK   77  A    between atoms: _187  and  _189
REMARK   78  A    between atoms: _189  and  _190
REMARK   79  A    between atoms: _189  and  _192
REMARK   80  A    between atoms: _192  and  _193
REMARK   81  A    between atoms: _195  and  _197
REMARK   82  A    between atoms: _197  and  _198
REMARK   83  A    between atoms: _197  and  _200
REMARK   84  A    between atoms: _200  and  _201
REMARK   85  A    between atoms: _203  and  _205
REMARK   86  A    between atoms: _205  and  _206
REMARK   87  A    between atoms: _209  and  _211
REMARK   88  A    between atoms: _211  and  _212
REMARK   89  A    between atoms: _211  and  _214
REMARK   90  A    between atoms: _214  and  _215
REMARK   91  A    between atoms: _215  and  _216
REMARK   92  A    between atoms: _221  and  _223
REMARK   93  A    between atoms: _223  and  _224
REMARK   94  A    between atoms: _223  and  _226
REMARK   95  A    between atoms: _226  and  _227
REMARK   96  A    between atoms: _233  and  _235
REMARK   97  A    between atoms: _235  and  _236
REMARK   98  A    between atoms: _235  and  _238
REMARK   99  A    between atoms: _238  and  _239
REMARK  100  A    between atoms: _239  and  _240
REMARK  101  A    between atoms: _245  and  _247
REMARK  102  A    between atoms: _247  and  _248
REMARK  103  A    between atoms: _247  and  _250
REMARK  104  A    between atoms: _250  and  _251
REMARK  105  A    between atoms: _251  and  _252
REMARK  106  A    between atoms: _257  and  _259
REMARK  107  A    between atoms: _259  and  _260
REMARK  108  A    between atoms: _259  and  _262
REMARK  109  A    between atoms: _262  and  _263
REMARK  110  A    between atoms: _266  and  _268
REMARK  111  A    between atoms: _268  and  _269
REMARK  112  A    between atoms: _268  and  _271
REMARK  113  A    between atoms: _271  and  _272
REMARK  114  A    between atoms: _275  and  _277
REMARK  115  A    between atoms: _277  and  _278
REMARK  116  A    between atoms: _277  and  _280
REMARK  117  A    between atoms: _280  and  _281
REMARK  118  A    between atoms: _286  and  _288
REMARK  119  A    between atoms: _288  and  _289
REMARK  120  A    between atoms: _288  and  _291
REMARK  121  A    between atoms: _291  and  _292
REMARK  122  A    between atoms: _297  and  _299
REMARK  123  A    between atoms: _299  and  _300
REMARK  124  A    between atoms: _302  and  _304
REMARK  125  A    between atoms: _304  and  _305
REMARK  126  A    between atoms: _304  and  _307
REMARK  127  A    between atoms: _307  and  _308
REMARK  128  A    between atoms: _311  and  _313
REMARK  129  A    between atoms: _313  and  _314
REMARK  130  A    between atoms: _316  and  _318
REMARK  131  A    between atoms: _318  and  _319
REMARK  132  A    between atoms: _318  and  _321
REMARK  133  A    between atoms: _321  and  _322
REMARK  134  A    between atoms: _325  and  _327
REMARK  135  A    between atoms: _327  and  _328
REMARK  136  A    between atoms: _331  and  _333
REMARK  137  A    between atoms: _333  and  _334
REMARK  138  A    between atoms: _333  and  _336
REMARK  139  A    between atoms: _336  and  _337
REMARK  140  A    between atoms: _340  and  _342
REMARK  141  A    between atoms: _342  and  _343
REMARK  142  A    between atoms: _342  and  _345
REMARK  143  A    between atoms: _345  and  _346
REMARK  144  A    between atoms: _349  and  _351
REMARK  145  A    between atoms: _351  and  _352
REMARK  146  A    between atoms: _351  and  _354
REMARK  147  A    between atoms: _354  and  _355
REMARK  148  A    between atoms: _355  and  _356
REMARK  149  A    between atoms: _361  and  _363
REMARK  150  A    between atoms: _363  and  _364
REMARK  151  A    between atoms: _363  and  _366
REMARK  152  A    between atoms: _366  and  _367
REMARK  153  A    between atoms: _373  and  _375
REMARK  154  A    between atoms: _375  and  _376
REMARK  155  A    between atoms: _375  and  _378
REMARK  156  A    between atoms: _378  and  _379
REMARK  157  A    between atoms: _382  and  _384
REMARK  158  A    between atoms: _384  and  _385
REMARK  159  A    between atoms: _388  and  _390
REMARK  160  A    between atoms: _390  and  _391
REMARK  161  A    between atoms: _390  and  _393
REMARK  162  A    between atoms: _393  and  _394
REMARK  163  A    between atoms: _397  and  _399
REMARK  164  A    between atoms: _399  and  _400
REMARK  165  A    between atoms: _399  and  _402
REMARK  166  A    between atoms: _402  and  _403
REMARK  167  A    between atoms: _406  and  _408
REMARK  168  A    between atoms: _408  and  _409
REMARK  169  A    between atoms: _411  and  _413
REMARK  170  A    between atoms: _413  and  _414
REMARK  171  A    between atoms: _413  and  _416
REMARK  172  A    between atoms: _416  and  _417
REMARK  173  A    between atoms: _420  and  _422
REMARK  174  A    between atoms: _422  and  _423
REMARK  175  A    between atoms: _422  and  _425
REMARK  176  A    between atoms: _425  and  _426
REMARK  177  A    between atoms: _429  and  _431
REMARK  178  A    between atoms: _431  and  _432
REMARK  179  A    between atoms: _431  and  _434
REMARK  180  A    between atoms: _434  and  _435
REMARK  181  A    between atoms: _438  and  _440
REMARK  182  A    between atoms: _440  and  _441
REMARK  183  A    between atoms: _440  and  _443
REMARK  184  A    between atoms: _443  and  _444
REMARK  185  A    between atoms: _447  and  _449
REMARK  186  A    between atoms: _449  and  _450
REMARK  187  A    between atoms: _449  and  _452
REMARK  188  A    between atoms: _452  and  _453
REMARK  189  A    between atoms: _456  and  _458
REMARK  190  A    between atoms: _458  and  _459
REMARK  191  A    between atoms: _458  and  _461
REMARK  192  A    between atoms: _461  and  _462
REMARK  193  A    between atoms: _464  and  _466
REMARK  194  A    between atoms: _466  and  _467
REMARK  195  A    between atoms: _466  and  _469
REMARK  196  A    between atoms: _469  and  _470
REMARK  197  A    between atoms: _475  and  _477
REMARK  198  A    between atoms: _477  and  _478
REMARK  199  A    between atoms: _477  and  _480
REMARK  200  A    between atoms: _480  and  _481
REMARK  201  A    between atoms: _483  and  _485
REMARK  202  A    between atoms: _485  and  _486
REMARK  203  A    between atoms: _485  and  _488
REMARK  204  A    between atoms: _488  and  _489
REMARK  205  A    between atoms: _492  and  _494
REMARK  206  A    between atoms: _494  and  _495
REMARK  207  A    between atoms: _494  and  _497
REMARK  208  A    between atoms: _497  and  _498
REMARK  209  A    between atoms: _504  and  _506
REMARK  210  A    between atoms: _506  and  _507
REMARK  211  A    between atoms: _506  and  _509
REMARK  212  A    between atoms: _509  and  _510
REMARK  213  A    between atoms: _512  and  _514
REMARK  214  A    between atoms: _514  and  _515
REMARK  215  A    between atoms: _514  and  _517
REMARK  216  A    between atoms: _517  and  _518
REMARK  217  A    between atoms: _521  and  _523
REMARK  218  A    between atoms: _523  and  _524
REMARK  219  A    between atoms: _523  and  _526
REMARK  220  A    between atoms: _526  and  _527
REMARK  221  A    between atoms: _533  and  _535
REMARK  222  A    between atoms: _535  and  _536
REMARK  223  A    between atoms: _538  and  _540
REMARK  224  A    between atoms: _540  and  _541
REMARK  225  A    between atoms: _540  and  _543
REMARK  226  A    between atoms: _543  and  _544
REMARK  227  A    between atoms: _547  and  _549
REMARK  228  A    between atoms: _549  and  _550
REMARK  229  A    between atoms: _552  and  _554
REMARK  230  A    between atoms: _554  and  _555
REMARK  231  A    between atoms: _554  and  _557
REMARK  232  A    between atoms: _557  and  _558
REMARK  233  A    between atoms: _563  and  _564
REMARK  234  A    between atoms: _566  and  _568
REMARK  235  A    between atoms: _568  and  _569
REMARK  236  A    between atoms: _568  and  _571
REMARK  237  A    between atoms: _571  and  _572
REMARK  238  A    between atoms: _575  and  _577
REMARK  239  A    between atoms: _577  and  _578
REMARK  240  A    between atoms: _577  and  _580
REMARK  241  A    between atoms: _580  and  _581
REMARK  242  A    between atoms: _584  and  _586
REMARK  243  A    between atoms: _586  and  _587
REMARK  244  A    between atoms: _586  and  _589
REMARK  245  A    between atoms: _592  and  _594
REMARK  246  A    between atoms: _594  and  _595
REMARK  247  A    between atoms: _594  and  _597
REMARK  248  A    between atoms: _597  and  _598
REMARK  249  A    between atoms: _598  and  _599
REMARK  250  A    between atoms: _605  and  _606
REMARK  251  A    between atoms: _611  and  _613
REMARK  252  A    between atoms: _613  and  _614
REMARK  253  A    between atoms: _613  and  _616
REMARK  254  A    between atoms: _616  and  _617
REMARK  255  A    between atoms: _617  and  _618
REMARK                            x       y       z     vdW  Elec       q    Type
REMARK                         _______ _______ _______ _____ _____    ______ ____
ROOT
ATOM      1  O   HOH     1      20.237   1.629  19.417  0.00  0.00    +0.000 OA
ENDROOT
TORSDOF 0
REMARK  Name = ../refined-set-2016/2web/2web_pocket.pdb
REMARK  255 active torsions:
REMARK  status: ('A' for Active; 'I' for Inactive)
REMARK    1  A    between atoms: _1  and  _3
REMARK    2  A    between atoms: _3  and  _4
REMARK    3  A    between atoms: _3  and  _6
REMARK    4  A    between atoms: _6  and  _7
REMARK    5  A    between atoms: _10  and  _12
REMARK    6  A    between atoms: _12  and  _13
REMARK    7  A    between atoms: _12  and  _15
REMARK    8  A    between atoms: _15  and  _16
REMARK    9  A    between atoms: _16  and  _17
REMARK   10  A    between atoms: _20  and  _22
REMARK   11  A    between atoms: _22  and  _23
REMARK   12  A    between atoms: _22  and  _25
REMARK   13  A    between atoms: _25  and  _26
REMARK   14  A    between atoms: _26  and  _27
REMARK   15  A    between atoms: _30  and  _32
REMARK   16  A    between atoms: _32  and  _33
REMARK   17  A    between atoms: _32  and  _35
REMARK   18  A    between atoms: _35  and  _36
REMARK   19  A    between atoms: _41  and  _42
REMARK   20  A    between atoms: _44  and  _46
REMARK   21  A    between atoms: _46  and  _47
REMARK   22  A    between atoms: _46  and  _49
REMARK   23  A    between atoms: _49  and  _50
REMARK   24  A    between atoms: _55  and  _57
REMARK   25  A    between atoms: _57  and  _58
REMARK   26  A    between atoms: _57  and  _60
REMARK   27  A    between atoms: _60  and  _61
REMARK   28  A    between atoms: _67  and  _69
REMARK   29  A    between atoms: _69  and  _70
REMARK   30  A    between atoms: _69  and  _72
REMARK   31  A    between atoms: _72  and  _73
REMARK   32  A    between atoms: _76  and  _78
REMARK   33  A    between atoms: _78  and  _79
REMARK   34  A    between atoms: _78  and  _81
REMARK   35  A    between atoms: _81  and  _82
REMARK   36  A    between atoms: _85  and  _87
REMARK   37  A    between atoms: _87  and  _88
REMARK   38  A    between atoms: _90  and  _92
REMARK   39  A    between atoms: _92  and  _93
REMARK   40  A    between atoms: _92  and  _95
REMARK   41  A    between atoms: _95  and  _96
REMARK   42  A    between atoms: _98  and  _100
REMARK   43  A    between atoms: _100  and  _101
REMARK   44  A    between atoms: _104  and  _106
REMARK   45  A    between atoms: _106  and  _107
REMARK   46  A    between atoms: _106  and  _109
REMARK   47  A    between atoms: _109  and  _110
REMARK   48  A    between atoms: _113  and  _115
REMARK   49  A    between atoms: _115  and  _116
REMARK   50  A    between atoms: _115  and  _118
REMARK   51  A    between atoms: _118  and  _119
REMARK   52  A    between atoms: _129  and  _131
REMARK   53  A    between atoms: _131  and  _132
REMARK   54  A    between atoms: _131  and  _134
REMARK   55  A    between atoms: _134  and  _135
REMARK   56  A    between atoms: _138  and  _140
REMARK   57  A    between atoms: _140  and  _141
REMARK   58  A    between atoms: _140  and  _143
REMARK   59  A    between atoms: _143  and  _144
REMARK   60  A    between atoms: _146  and  _148
REMARK   61  A    between atoms: _148  and  _149
REMARK   62  A    between atoms: _148  and  _151
REMARK   63  A    between atoms: _151  and  _152
REMARK   64  A    between atoms: _157  and  _158
REMARK   65  A    between atoms: _160  and  _162
REMARK   66  A    between atoms: _162  and  _163
REMARK   67  A    between atoms: _165  and  _167
REMARK   68  A    between atoms: _167  and  _168
REMARK   69  A    between atoms: _167  and  _170
REMARK   70  A    between atoms: _170  and  _171
REMARK   71  A    between atoms: _174  and  _176
REMARK   72  A    between atoms: _176  and  _177
REMARK   73  A    between atoms: _179  and  _181
REMARK   74  A    between atoms: _181  and  _182
REMARK   75  A    between atoms: _181  and  _184
REMARK   76  A    between atoms: _184  and  _185
REMARK   77  A    between atoms: _187  and  _189
REMARK   78  A    between atoms: _189  and  _190
REMARK   79  A    between atoms: _189  and  _192
REMARK   80  A    between atoms: _192  and  _193
REMARK   81  A    between atoms: _195  and  _197
REMARK   82  A    between atoms: _197  and  _198
REMARK   83  A    between atoms: _197  and  _200
REMARK   84  A    between atoms: _200  and  _201
REMARK   85  A    between atoms: _203  and  _205
REMARK   86  A    between atoms: _205  and  _206
REMARK   87  A    between atoms: _209  and  _211
REMARK   88  A    between atoms: _211  and  _212
REMARK   89  A    between atoms: _211  and  _214
REMARK   90  A    between atoms: _214  and  _215
REMARK   91  A    between atoms: _215  and  _216
REMARK   92  A    between atoms: _221  and  _223
REMARK   93  A    between atoms: _223  and  _224
REMARK   94  A    between atoms: _223  and  _226
REMARK   95  A    between atoms: _226  and  _227
REMARK   96  A    between atoms: _233  and  _235
REMARK   97  A    between atoms: _235  and  _236
REMARK   98  A    between atoms: _235  and  _238
REMARK   99  A    between atoms: _238  and  _239
REMARK  100  A    between atoms: _239  and  _240
REMARK  101  A    between atoms: _245  and  _247
REMARK  102  A    between atoms: _247  and  _248
REMARK  103  A    between atoms: _247  and  _250
REMARK  104  A    between atoms: _250  and  _251
REMARK  105  A    between atoms: _251  and  _252
REMARK  106  A    between atoms: _257  and  _259
REMARK  107  A    between atoms: _259  and  _260
REMARK  108  A    between atoms: _259  and  _262
REMARK  109  A    between atoms: _262  and  _263
REMARK  110  A    between atoms: _266  and  _268
REMARK  111  A    between atoms: _268  and  _269
REMARK  112  A    between atoms: _268  and  _271
REMARK  113  A    between atoms: _271  and  _272
REMARK  114  A    between atoms: _275  and  _277
REMARK  115  A    between atoms: _277  and  _278
REMARK  116  A    between atoms: _277  and  _280
REMARK  117  A    between atoms: _280  and  _281
REMARK  118  A    between atoms: _286  and  _288
REMARK  119  A    between atoms: _288  and  _289
REMARK  120  A    between atoms: _288  and  _291
REMARK  121  A    between atoms: _291  and  _292
REMARK  122  A    between atoms: _297  and  _299
REMARK  123  A    between atoms: _299  and  _300
REMARK  124  A    between atoms: _302  and  _304
REMARK  125  A    between atoms: _304  and  _305
REMARK  126  A    between atoms: _304  and  _307
REMARK  127  A    between atoms: _307  and  _308
REMARK  128  A    between atoms: _311  and  _313
REMARK  129  A    between atoms: _313  and  _314
REMARK  130  A    between atoms: _316  and  _318
REMARK  131  A    between atoms: _318  and  _319
REMARK  132  A    between atoms: _318  and  _321
REMARK  133  A    between atoms: _321  and  _322
REMARK  134  A    between atoms: _325  and  _327
REMARK  135  A    between atoms: _327  and  _328
REMARK  136  A    between atoms: _331  and  _333
REMARK  137  A    between atoms: _333  and  _334
REMARK  138  A    between atoms: _333  and  _336
REMARK  139  A    between atoms: _336  and  _337
REMARK  140  A    between atoms: _340  and  _342
REMARK  141  A    between atoms: _342  and  _343
REMARK  142  A    between atoms: _342  and  _345
REMARK  143  A    between atoms: _345  and  _346
REMARK  144  A    between atoms: _349  and  _351
REMARK  145  A    between atoms: _351  and  _352
REMARK  146  A    between atoms: _351  and  _354
REMARK  147  A    between atoms: _354  and  _355
REMARK  148  A    between atoms: _355  and  _356
REMARK  149  A    between atoms: _361  and  _363
REMARK  150  A    between atoms: _363  and  _364
REMARK  151  A    between atoms: _363  and  _366
REMARK  152  A    between atoms: _366  and  _367
REMARK  153  A    between atoms: _373  and  _375
REMARK  154  A    between atoms: _375  and  _376
REMARK  155  A    between atoms: _375  and  _378
REMARK  156  A    between atoms: _378  and  _379
REMARK  157  A    between atoms: _382  and  _384
REMARK  158  A    between atoms: _384  and  _385
REMARK  159  A    between atoms: _388  and  _390
REMARK  160  A    between atoms: _390  and  _391
REMARK  161  A    between atoms: _390  and  _393
REMARK  162  A    between atoms: _393  and  _394
REMARK  163  A    between atoms: _397  and  _399
REMARK  164  A    between atoms: _399  and  _400
REMARK  165  A    between atoms: _399  and  _402
REMARK  166  A    between atoms: _402  and  _403
REMARK  167  A    between atoms: _406  and  _408
REMARK  168  A    between atoms: _408  and  _409
REMARK  169  A    between atoms: _411  and  _413
REMARK  170  A    between atoms: _413  and  _414
REMARK  171  A    between atoms: _413  and  _416
REMARK  172  A    between atoms: _416  and  _417
REMARK  173  A    between atoms: _420  and  _422
REMARK  174  A    between atoms: _422  and  _423
REMARK  175  A    between atoms: _422  and  _425
REMARK  176  A    between atoms: _425  and  _426
REMARK  177  A    between atoms: _429  and  _431
REMARK  178  A    between atoms: _431  and  _432
REMARK  179  A    between atoms: _431  and  _434
REMARK  180  A    between atoms: _434  and  _435
REMARK  181  A    between atoms: _438  and  _440
REMARK  182  A    between atoms: _440  and  _441
REMARK  183  A    between atoms: _440  and  _443
REMARK  184  A    between atoms: _443  and  _444
REMARK  185  A    between atoms: _447  and  _449
REMARK  186  A    between atoms: _449  and  _450
REMARK  187  A    between atoms: _449  and  _452
REMARK  188  A    between atoms: _452  and  _453
REMARK  189  A    between atoms: _456  and  _458
REMARK  190  A    between atoms: _458  and  _459
REMARK  191  A    between atoms: _458  and  _461
REMARK  192  A    between atoms: _461  and  _462
REMARK  193  A    between atoms: _464  and  _466
REMARK  194  A    between atoms: _466  and  _467
REMARK  195  A    between atoms: _466  and  _469
REMARK  196  A    between atoms: _469  and  _470
REMARK  197  A    between atoms: _475  and  _477
REMARK  198  A    between atoms: _477  and  _478
REMARK  199  A    between atoms: _477  and  _480
REMARK  200  A    between atoms: _480  and  _481
REMARK  201  A    between atoms: _483  and  _485
REMARK  202  A    between atoms: _485  and  _486
REMARK  203  A    between atoms: _485  and  _488
REMARK  204  A    between atoms: _488  and  _489
REMARK  205  A    between atoms: _492  and  _494
REMARK  206  A    between atoms: _494  and  _495
REMARK  207  A    between atoms: _494  and  _497
REMARK  208  A    between atoms: _497  and  _498
REMARK  209  A    between atoms: _504  and  _506
REMARK  210  A    between atoms: _506  and  _507
REMARK  211  A    between atoms: _506  and  _509
REMARK  212  A    between atoms: _509  and  _510
REMARK  213  A    between atoms: _512  and  _514
REMARK  214  A    between atoms: _514  and  _515
REMARK  215  A    between atoms: _514  and  _517
REMARK  216  A    between atoms: _517  and  _518
REMARK  217  A    between atoms: _521  and  _523
REMARK  218  A    between atoms: _523  and  _524
REMARK  219  A    between atoms: _523  and  _526
REMARK  220  A    between atoms: _526  and  _527
REMARK  221  A    between atoms: _533  and  _535
REMARK  222  A    between atoms: _535  and  _536
REMARK  223  A    between atoms: _538  and  _540
REMARK  224  A    between atoms: _540  and  _541
REMARK  225  A    between atoms: _540  and  _543
REMARK  226  A    between atoms: _543  and  _544
REMARK  227  A    between atoms: _547  and  _549
REMARK  228  A    between atoms: _549  and  _550
REMARK  229  A    between atoms: _552  and  _554
REMARK  230  A    between atoms: _554  and  _555
REMARK  231  A    between atoms: _554  and  _557
REMARK  232  A    between atoms: _557  and  _558
REMARK  233  A    between atoms: _563  and  _564
REMARK  234  A    between atoms: _566  and  _568
REMARK  235  A    between atoms: _568  and  _569
REMARK  236  A    between atoms: _568  and  _571
REMARK  237  A    between atoms: _571  and  _572
REMARK  238  A    between atoms: _575  and  _577
REMARK  239  A    between atoms: _577  and  _578
REMARK  240  A    between atoms: _577  and  _580
REMARK  241  A    between atoms: _580  and  _581
REMARK  242  A    between atoms: _584  and  _586
REMARK  243  A    between atoms: _586  and  _587
REMARK  244  A    between atoms: _586  and  _589
REMARK  245  A    between atoms: _592  and  _594
REMARK  246  A    between atoms: _594  and  _595
REMARK  247  A    between atoms: _594  and  _597
REMARK  248  A    between atoms: _597  and  _598
REMARK  249  A    between atoms: _598  and  _599
REMARK  250  A    between atoms: _605  and  _606
REMARK  251  A    between atoms: _611  and  _613
REMARK  252  A    between atoms: _613  and  _614
REMARK  253  A    between atoms: _613  and  _616
REMARK  254  A    between atoms: _616  and  _617
REMARK  255  A    between atoms: _617  and  _618
REMARK                            x       y       z     vdW  Elec       q    Type
REMARK                         _______ _______ _______ _____ _____    ______ ____
ROOT
ATOM      1  O   HOH     1      20.613  -1.006  13.273  0.00  0.00    +0.000 OA
ENDROOT
TORSDOF 0
REMARK  Name = ../refined-set-2016/2web/2web_pocket.pdb
REMARK  255 active torsions:
REMARK  status: ('A' for Active; 'I' for Inactive)
REMARK    1  A    between atoms: _1  and  _3
REMARK    2  A    between atoms: _3  and  _4
REMARK    3  A    between atoms: _3  and  _6
REMARK    4  A    between atoms: _6  and  _7
REMARK    5  A    between atoms: _10  and  _12
REMARK    6  A    between atoms: _12  and  _13
REMARK    7  A    between atoms: _12  and  _15
REMARK    8  A    between atoms: _15  and  _16
REMARK    9  A    between atoms: _16  and  _17
REMARK   10  A    between atoms: _20  and  _22
REMARK   11  A    between atoms: _22  and  _23
REMARK   12  A    between atoms: _22  and  _25
REMARK   13  A    between atoms: _25  and  _26
REMARK   14  A    between atoms: _26  and  _27
REMARK   15  A    between atoms: _30  and  _32
REMARK   16  A    between atoms: _32  and  _33
REMARK   17  A    between atoms: _32  and  _35
REMARK   18  A    between atoms: _35  and  _36
REMARK   19  A    between atoms: _41  and  _42
REMARK   20  A    between atoms: _44  and  _46
REMARK   21  A    between atoms: _46  and  _47
REMARK   22  A    between atoms: _46  and  _49
REMARK   23  A    between atoms: _49  and  _50
REMARK   24  A    between atoms: _55  and  _57
REMARK   25  A    between atoms: _57  and  _58
REMARK   26  A    between atoms: _57  and  _60
REMARK   27  A    between atoms: _60  and  _61
REMARK   28  A    between atoms: _67  and  _69
REMARK   29  A    between atoms: _69  and  _70
REMARK   30  A    between atoms: _69  and  _72
REMARK   31  A    between atoms: _72  and  _73
REMARK   32  A    between atoms: _76  and  _78
REMARK   33  A    between atoms: _78  and  _79
REMARK   34  A    between atoms: _78  and  _81
REMARK   35  A    between atoms: _81  and  _82
REMARK   36  A    between atoms: _85  and  _87
REMARK   37  A    between atoms: _87  and  _88
REMARK   38  A    between atoms: _90  and  _92
REMARK   39  A    between atoms: _92  and  _93
REMARK   40  A    between atoms: _92  and  _95
REMARK   41  A    between atoms: _95  and  _96
REMARK   42  A    between atoms: _98  and  _100
REMARK   43  A    between atoms: _100  and  _101
REMARK   44  A    between atoms: _104  and  _106
REMARK   45  A    between atoms: _106  and  _107
REMARK   46  A    between atoms: _106  and  _109
REMARK   47  A    between atoms: _109  and  _110
REMARK   48  A    between atoms: _113  and  _115
REMARK   49  A    between atoms: _115  and  _116
REMARK   50  A    between atoms: _115  and  _118
REMARK   51  A    between atoms: _118  and  _119
REMARK   52  A    between atoms: _129  and  _131
REMARK   53  A    between atoms: _131  and  _132
REMARK   54  A    between atoms: _131  and  _134
REMARK   55  A    between atoms: _134  and  _135
REMARK   56  A    between atoms: _138  and  _140
REMARK   57  A    between atoms: _140  and  _141
REMARK   58  A    between atoms: _140  and  _143
REMARK   59  A    between atoms: _143  and  _144
REMARK   60  A    between atoms: _146  and  _148
REMARK   61  A    between atoms: _148  and  _149
REMARK   62  A    between atoms: _148  and  _151
REMARK   63  A    between atoms: _151  and  _152
REMARK   64  A    between atoms: _157  and  _158
REMARK   65  A    between atoms: _160  and  _162
REMARK   66  A    between atoms: _162  and  _163
REMARK   67  A    between atoms: _165  and  _167
REMARK   68  A    between atoms: _167  and  _168
REMARK   69  A    between atoms: _167  and  _170
REMARK   70  A    between atoms: _170  and  _171
REMARK   71  A    between atoms: _174  and  _176
REMARK   72  A    between atoms: _176  and  _177
REMARK   73  A    between atoms: _179  and  _181
REMARK   74  A    between atoms: _181  and  _182
REMARK   75  A    between atoms: _181  and  _184
REMARK   76  A    between atoms: _184  and  _185
REMARK   77  A    between atoms: _187  and  _189
REMARK   78  A    between atoms: _189  and  _190
REMARK   79  A    between atoms: _189  and  _192
REMARK   80  A    between atoms: _192  and  _193
REMARK   81  A    between atoms: _195  and  _197
REMARK   82  A    between atoms: _197  and  _198
REMARK   83  A    between atoms: _197  and  _200
REMARK   84  A    between atoms: _200  and  _201
REMARK   85  A    between atoms: _203  and  _205
REMARK   86  A    between atoms: _205  and  _206
REMARK   87  A    between atoms: _209  and  _211
REMARK   88  A    between atoms: _211  and  _212
REMARK   89  A    between atoms: _211  and  _214
REMARK   90  A    between atoms: _214  and  _215
REMARK   91  A    between atoms: _215  and  _216
REMARK   92  A    between atoms: _221  and  _223
REMARK   93  A    between atoms: _223  and  _224
REMARK   94  A    between atoms: _223  and  _226
REMARK   95  A    between atoms: _226  and  _227
REMARK   96  A    between atoms: _233  and  _235
REMARK   97  A    between atoms: _235  and  _236
REMARK   98  A    between atoms: _235  and  _238
REMARK   99  A    between atoms: _238  and  _239
REMARK  100  A    between atoms: _239  and  _240
REMARK  101  A    between atoms: _245  and  _247
REMARK  102  A    between atoms: _247  and  _248
REMARK  103  A    between atoms: _247  and  _250
REMARK  104  A    between atoms: _250  and  _251
REMARK  105  A    between atoms: _251  and  _252
REMARK  106  A    between atoms: _257  and  _259
REMARK  107  A    between atoms: _259  and  _260
REMARK  108  A    between atoms: _259  and  _262
REMARK  109  A    between atoms: _262  and  _263
REMARK  110  A    between atoms: _266  and  _268
REMARK  111  A    between atoms: _268  and  _269
REMARK  112  A    between atoms: _268  and  _271
REMARK  113  A    between atoms: _271  and  _272
REMARK  114  A    between atoms: _275  and  _277
REMARK  115  A    between atoms: _277  and  _278
REMARK  116  A    between atoms: _277  and  _280
REMARK  117  A    between atoms: _280  and  _281
REMARK  118  A    between atoms: _286  and  _288
REMARK  119  A    between atoms: _288  and  _289
REMARK  120  A    between atoms: _288  and  _291
REMARK  121  A    between atoms: _291  and  _292
REMARK  122  A    between atoms: _297  and  _299
REMARK  123  A    between atoms: _299  and  _300
REMARK  124  A    between atoms: _302  and  _304
REMARK  125  A    between atoms: _304  and  _305
REMARK  126  A    between atoms: _304  and  _307
REMARK  127  A    between atoms: _307  and  _308
REMARK  128  A    between atoms: _311  and  _313
REMARK  129  A    between atoms: _313  and  _314
REMARK  130  A    between atoms: _316  and  _318
REMARK  131  A    between atoms: _318  and  _319
REMARK  132  A    between atoms: _318  and  _321
REMARK  133  A    between atoms: _321  and  _322
REMARK  134  A    between atoms: _325  and  _327
REMARK  135  A    between atoms: _327  and  _328
REMARK  136  A    between atoms: _331  and  _333
REMARK  137  A    between atoms: _333  and  _334
REMARK  138  A    between atoms: _333  and  _336
REMARK  139  A    between atoms: _336  and  _337
REMARK  140  A    between atoms: _340  and  _342
REMARK  141  A    between atoms: _342  and  _343
REMARK  142  A    between atoms: _342  and  _345
REMARK  143  A    between atoms: _345  and  _346
REMARK  144  A    between atoms: _349  and  _351
REMARK  145  A    between atoms: _351  and  _352
REMARK  146  A    between atoms: _351  and  _354
REMARK  147  A    between atoms: _354  and  _355
REMARK  148  A    between atoms: _355  and  _356
REMARK  149  A    between atoms: _361  and  _363
REMARK  150  A    between atoms: _363  and  _364
REMARK  151  A    between atoms: _363  and  _366
REMARK  152  A    between atoms: _366  and  _367
REMARK  153  A    between atoms: _373  and  _375
REMARK  154  A    between atoms: _375  and  _376
REMARK  155  A    between atoms: _375  and  _378
REMARK  156  A    between atoms: _378  and  _379
REMARK  157  A    between atoms: _382  and  _384
REMARK  158  A    between atoms: _384  and  _385
REMARK  159  A    between atoms: _388  and  _390
REMARK  160  A    between atoms: _390  and  _391
REMARK  161  A    between atoms: _390  and  _393
REMARK  162  A    between atoms: _393  and  _394
REMARK  163  A    between atoms: _397  and  _399
REMARK  164  A    between atoms: _399  and  _400
REMARK  165  A    between atoms: _399  and  _402
REMARK  166  A    between atoms: _402  and  _403
REMARK  167  A    between atoms: _406  and  _408
REMARK  168  A    between atoms: _408  and  _409
REMARK  169  A    between atoms: _411  and  _413
REMARK  170  A    between atoms: _413  and  _414
REMARK  171  A    between atoms: _413  and  _416
REMARK  172  A    between atoms: _416  and  _417
REMARK  173  A    between atoms: _420  and  _422
REMARK  174  A    between atoms: _422  and  _423
REMARK  175  A    between atoms: _422  and  _425
REMARK  176  A    between atoms: _425  and  _426
REMARK  177  A    between atoms: _429  and  _431
REMARK  178  A    between atoms: _431  and  _432
REMARK  179  A    between atoms: _431  and  _434
REMARK  180  A    between atoms: _434  and  _435
REMARK  181  A    between atoms: _438  and  _440
REMARK  182  A    between atoms: _440  and  _441
REMARK  183  A    between atoms: _440  and  _443
REMARK  184  A    between atoms: _443  and  _444
REMARK  185  A    between atoms: _447  and  _449
REMARK  186  A    between atoms: _449  and  _450
REMARK  187  A    between atoms: _449  and  _452
REMARK  188  A    between atoms: _452  and  _453
REMARK  189  A    between atoms: _456  and  _458
REMARK  190  A    between atoms: _458  and  _459
REMARK  191  A    between atoms: _458  and  _461
REMARK  192  A    between atoms: _461  and  _462
REMARK  193  A    between atoms: _464  and  _466
REMARK  194  A    between atoms: _466  and  _467
REMARK  195  A    between atoms: _466  and  _469
REMARK  196  A    between atoms: _469  and  _470
REMARK  197  A    between atoms: _475  and  _477
REMARK  198  A    between atoms: _477  and  _478
REMARK  199  A    between atoms: _477  and  _480
REMARK  200  A    between atoms: _480  and  _481
REMARK  201  A    between atoms: _483  and  _485
REMARK  202  A    between atoms: _485  and  _486
REMARK  203  A    between atoms: _485  and  _488
REMARK  204  A    between atoms: _488  and  _489
REMARK  205  A    between atoms: _492  and  _494
REMARK  206  A    between atoms: _494  and  _495
REMARK  207  A    between atoms: _494  and  _497
REMARK  208  A    between atoms: _497  and  _498
REMARK  209  A    between atoms: _504  and  _506
REMARK  210  A    between atoms: _506  and  _507
REMARK  211  A    between atoms: _506  and  _509
REMARK  212  A    between atoms: _509  and  _510
REMARK  213  A    between atoms: _512  and  _514
REMARK  214  A    between atoms: _514  and  _515
REMARK  215  A    between atoms: _514  and  _517
REMARK  216  A    between atoms: _517  and  _518
REMARK  217  A    between atoms: _521  and  _523
REMARK  218  A    between atoms: _523  and  _524
REMARK  219  A    between atoms: _523  and  _526
REMARK  220  A    between atoms: _526  and  _527
REMARK  221  A    between atoms: _533  and  _535
REMARK  222  A    between atoms: _535  and  _536
REMARK  223  A    between atoms: _538  and  _540
REMARK  224  A    between atoms: _540  and  _541
REMARK  225  A    between atoms: _540  and  _543
REMARK  226  A    between atoms: _543  and  _544
REMARK  227  A    between atoms: _547  and  _549
REMARK  228  A    between atoms: _549  and  _550
REMARK  229  A    between atoms: _552  and  _554
REMARK  230  A    between atoms: _554  and  _555
REMARK  231  A    between atoms: _554  and  _557
REMARK  232  A    between atoms: _557  and  _558
REMARK  233  A    between atoms: _563  and  _564
REMARK  234  A    between atoms: _566  and  _568
REMARK  235  A    between atoms: _568  and  _569
REMARK  236  A    between atoms: _568  and  _571
REMARK  237  A    between atoms: _571  and  _572
REMARK  238  A    between atoms: _575  and  _577
REMARK  239  A    between atoms: _577  and  _578
REMARK  240  A    between atoms: _577  and  _580
REMARK  241  A    between atoms: _580  and  _581
REMARK  242  A    between atoms: _584  and  _586
REMARK  243  A    between atoms: _586  and  _587
REMARK  244  A    between atoms: _586  and  _589
REMARK  245  A    between atoms: _592  and  _594
REMARK  246  A    between atoms: _594  and  _595
REMARK  247  A    between atoms: _594  and  _597
REMARK  248  A    between atoms: _597  and  _598
REMARK  249  A    between atoms: _598  and  _599
REMARK  250  A    between atoms: _605  and  _606
REMARK  251  A    between atoms: _611  and  _613
REMARK  252  A    between atoms: _613  and  _614
REMARK  253  A    between atoms: _613  and  _616
REMARK  254  A    between atoms: _616  and  _617
REMARK  255  A    between atoms: _617  and  _618
REMARK                            x       y       z     vdW  Elec       q    Type
REMARK                         _______ _______ _______ _____ _____    ______ ____
ROOT
ATOM      1  O   HOH     1      27.772  14.126  24.539  0.00  0.00    +0.000 OA
ENDROOT
TORSDOF 0
REMARK  Name = ../refined-set-2016/2web/2web_pocket.pdb
REMARK  255 active torsions:
REMARK  status: ('A' for Active; 'I' for Inactive)
REMARK    1  A    between atoms: _1  and  _3
REMARK    2  A    between atoms: _3  and  _4
REMARK    3  A    between atoms: _3  and  _6
REMARK    4  A    between atoms: _6  and  _7
REMARK    5  A    between atoms: _10  and  _12
REMARK    6  A    between atoms: _12  and  _13
REMARK    7  A    between atoms: _12  and  _15
REMARK    8  A    between atoms: _15  and  _16
REMARK    9  A    between atoms: _16  and  _17
REMARK   10  A    between atoms: _20  and  _22
REMARK   11  A    between atoms: _22  and  _23
REMARK   12  A    between atoms: _22  and  _25
REMARK   13  A    between atoms: _25  and  _26
REMARK   14  A    between atoms: _26  and  _27
REMARK   15  A    between atoms: _30  and  _32
REMARK   16  A    between atoms: _32  and  _33
REMARK   17  A    between atoms: _32  and  _35
REMARK   18  A    between atoms: _35  and  _36
REMARK   19  A    between atoms: _41  and  _42
REMARK   20  A    between atoms: _44  and  _46
REMARK   21  A    between atoms: _46  and  _47
REMARK   22  A    between atoms: _46  and  _49
REMARK   23  A    between atoms: _49  and  _50
REMARK   24  A    between atoms: _55  and  _57
REMARK   25  A    between atoms: _57  and  _58
REMARK   26  A    between atoms: _57  and  _60
REMARK   27  A    between atoms: _60  and  _61
REMARK   28  A    between atoms: _67  and  _69
REMARK   29  A    between atoms: _69  and  _70
REMARK   30  A    between atoms: _69  and  _72
REMARK   31  A    between atoms: _72  and  _73
REMARK   32  A    between atoms: _76  and  _78
REMARK   33  A    between atoms: _78  and  _79
REMARK   34  A    between atoms: _78  and  _81
REMARK   35  A    between atoms: _81  and  _82
REMARK   36  A    between atoms: _85  and  _87
REMARK   37  A    between atoms: _87  and  _88
REMARK   38  A    between atoms: _90  and  _92
REMARK   39  A    between atoms: _92  and  _93
REMARK   40  A    between atoms: _92  and  _95
REMARK   41  A    between atoms: _95  and  _96
REMARK   42  A    between atoms: _98  and  _100
REMARK   43  A    between atoms: _100  and  _101
REMARK   44  A    between atoms: _104  and  _106
REMARK   45  A    between atoms: _106  and  _107
REMARK   46  A    between atoms: _106  and  _109
REMARK   47  A    between atoms: _109  and  _110
REMARK   48  A    between atoms: _113  and  _115
REMARK   49  A    between atoms: _115  and  _116
REMARK   50  A    between atoms: _115  and  _118
REMARK   51  A    between atoms: _118  and  _119
REMARK   52  A    between atoms: _129  and  _131
REMARK   53  A    between atoms: _131  and  _132
REMARK   54  A    between atoms: _131  and  _134
REMARK   55  A    between atoms: _134  and  _135
REMARK   56  A    between atoms: _138  and  _140
REMARK   57  A    between atoms: _140  and  _141
REMARK   58  A    between atoms: _140  and  _143
REMARK   59  A    between atoms: _143  and  _144
REMARK   60  A    between atoms: _146  and  _148
REMARK   61  A    between atoms: _148  and  _149
REMARK   62  A    between atoms: _148  and  _151
REMARK   63  A    between atoms: _151  and  _152
REMARK   64  A    between atoms: _157  and  _158
REMARK   65  A    between atoms: _160  and  _162
REMARK   66  A    between atoms: _162  and  _163
REMARK   67  A    between atoms: _165  and  _167
REMARK   68  A    between atoms: _167  and  _168
REMARK   69  A    between atoms: _167  and  _170
REMARK   70  A    between atoms: _170  and  _171
REMARK   71  A    between atoms: _174  and  _176
REMARK   72  A    between atoms: _176  and  _177
REMARK   73  A    between atoms: _179  and  _181
REMARK   74  A    between atoms: _181  and  _182
REMARK   75  A    between atoms: _181  and  _184
REMARK   76  A    between atoms: _184  and  _185
REMARK   77  A    between atoms: _187  and  _189
REMARK   78  A    between atoms: _189  and  _190
REMARK   79  A    between atoms: _189  and  _192
REMARK   80  A    between atoms: _192  and  _193
REMARK   81  A    between atoms: _195  and  _197
REMARK   82  A    between atoms: _197  and  _198
REMARK   83  A    between atoms: _197  and  _200
REMARK   84  A    between atoms: _200  and  _201
REMARK   85  A    between atoms: _203  and  _205
REMARK   86  A    between atoms: _205  and  _206
REMARK   87  A    between atoms: _209  and  _211
REMARK   88  A    between atoms: _211  and  _212
REMARK   89  A    between atoms: _211  and  _214
REMARK   90  A    between atoms: _214  and  _215
REMARK   91  A    between atoms: _215  and  _216
REMARK   92  A    between atoms: _221  and  _223
REMARK   93  A    between atoms: _223  and  _224
REMARK   94  A    between atoms: _223  and  _226
REMARK   95  A    between atoms: _226  and  _227
REMARK   96  A    between atoms: _233  and  _235
REMARK   97  A    between atoms: _235  and  _236
REMARK   98  A    between atoms: _235  and  _238
REMARK   99  A    between atoms: _238  and  _239
REMARK  100  A    between atoms: _239  and  _240
REMARK  101  A    between atoms: _245  and  _247
REMARK  102  A    between atoms: _247  and  _248
REMARK  103  A    between atoms: _247  and  _250
REMARK  104  A    between atoms: _250  and  _251
REMARK  105  A    between atoms: _251  and  _252
REMARK  106  A    between atoms: _257  and  _259
REMARK  107  A    between atoms: _259  and  _260
REMARK  108  A    between atoms: _259  and  _262
REMARK  109  A    between atoms: _262  and  _263
REMARK  110  A    between atoms: _266  and  _268
REMARK  111  A    between atoms: _268  and  _269
REMARK  112  A    between atoms: _268  and  _271
REMARK  113  A    between atoms: _271  and  _272
REMARK  114  A    between atoms: _275  and  _277
REMARK  115  A    between atoms: _277  and  _278
REMARK  116  A    between atoms: _277  and  _280
REMARK  117  A    between atoms: _280  and  _281
REMARK  118  A    between atoms: _286  and  _288
REMARK  119  A    between atoms: _288  and  _289
REMARK  120  A    between atoms: _288  and  _291
REMARK  121  A    between atoms: _291  and  _292
REMARK  122  A    between atoms: _297  and  _299
REMARK  123  A    between atoms: _299  and  _300
REMARK  124  A    between atoms: _302  and  _304
REMARK  125  A    between atoms: _304  and  _305
REMARK  126  A    between atoms: _304  and  _307
REMARK  127  A    between atoms: _307  and  _308
REMARK  128  A    between atoms: _311  and  _313
REMARK  129  A    between atoms: _313  and  _314
REMARK  130  A    between atoms: _316  and  _318
REMARK  131  A    between atoms: _318  and  _319
REMARK  132  A    between atoms: _318  and  _321
REMARK  133  A    between atoms: _321  and  _322
REMARK  134  A    between atoms: _325  and  _327
REMARK  135  A    between atoms: _327  and  _328
REMARK  136  A    between atoms: _331  and  _333
REMARK  137  A    between atoms: _333  and  _334
REMARK  138  A    between atoms: _333  and  _336
REMARK  139  A    between atoms: _336  and  _337
REMARK  140  A    between atoms: _340  and  _342
REMARK  141  A    between atoms: _342  and  _343
REMARK  142  A    between atoms: _342  and  _345
REMARK  143  A    between atoms: _345  and  _346
REMARK  144  A    between atoms: _349  and  _351
REMARK  145  A    between atoms: _351  and  _352
REMARK  146  A    between atoms: _351  and  _354
REMARK  147  A    between atoms: _354  and  _355
REMARK  148  A    between atoms: _355  and  _356
REMARK  149  A    between atoms: _361  and  _363
REMARK  150  A    between atoms: _363  and  _364
REMARK  151  A    between atoms: _363  and  _366
REMARK  152  A    between atoms: _366  and  _367
REMARK  153  A    between atoms: _373  and  _375
REMARK  154  A    between atoms: _375  and  _376
REMARK  155  A    between atoms: _375  and  _378
REMARK  156  A    between atoms: _378  and  _379
REMARK  157  A    between atoms: _382  and  _384
REMARK  158  A    between atoms: _384  and  _385
REMARK  159  A    between atoms: _388  and  _390
REMARK  160  A    between atoms: _390  and  _391
REMARK  161  A    between atoms: _390  and  _393
REMARK  162  A    between atoms: _393  and  _394
REMARK  163  A    between atoms: _397  and  _399
REMARK  164  A    between atoms: _399  and  _400
REMARK  165  A    between atoms: _399  and  _402
REMARK  166  A    between atoms: _402  and  _403
REMARK  167  A    between atoms: _406  and  _408
REMARK  168  A    between atoms: _408  and  _409
REMARK  169  A    between atoms: _411  and  _413
REMARK  170  A    between atoms: _413  and  _414
REMARK  171  A    between atoms: _413  and  _416
REMARK  172  A    between atoms: _416  and  _417
REMARK  173  A    between atoms: _420  and  _422
REMARK  174  A    between atoms: _422  and  _423
REMARK  175  A    between atoms: _422  and  _425
REMARK  176  A    between atoms: _425  and  _426
REMARK  177  A    between atoms: _429  and  _431
REMARK  178  A    between atoms: _431  and  _432
REMARK  179  A    between atoms: _431  and  _434
REMARK  180  A    between atoms: _434  and  _435
REMARK  181  A    between atoms: _438  and  _440
REMARK  182  A    between atoms: _440  and  _441
REMARK  183  A    between atoms: _440  and  _443
REMARK  184  A    between atoms: _443  and  _444
REMARK  185  A    between atoms: _447  and  _449
REMARK  186  A    between atoms: _449  and  _450
REMARK  187  A    between atoms: _449  and  _452
REMARK  188  A    between atoms: _452  and  _453
REMARK  189  A    between atoms: _456  and  _458
REMARK  190  A    between atoms: _458  and  _459
REMARK  191  A    between atoms: _458  and  _461
REMARK  192  A    between atoms: _461  and  _462
REMARK  193  A    between atoms: _464  and  _466
REMARK  194  A    between atoms: _466  and  _467
REMARK  195  A    between atoms: _466  and  _469
REMARK  196  A    between atoms: _469  and  _470
REMARK  197  A    between atoms: _475  and  _477
REMARK  198  A    between atoms: _477  and  _478
REMARK  199  A    between atoms: _477  and  _480
REMARK  200  A    between atoms: _480  and  _481
REMARK  201  A    between atoms: _483  and  _485
REMARK  202  A    between atoms: _485  and  _486
REMARK  203  A    between atoms: _485  and  _488
REMARK  204  A    between atoms: _488  and  _489
REMARK  205  A    between atoms: _492  and  _494
REMARK  206  A    between atoms: _494  and  _495
REMARK  207  A    between atoms: _494  and  _497
REMARK  208  A    between atoms: _497  and  _498
REMARK  209  A    between atoms: _504  and  _506
REMARK  210  A    between atoms: _506  and  _507
REMARK  211  A    between atoms: _506  and  _509
REMARK  212  A    between atoms: _509  and  _510
REMARK  213  A    between atoms: _512  and  _514
REMARK  214  A    between atoms: _514  and  _515
REMARK  215  A    between atoms: _514  and  _517
REMARK  216  A    between atoms: _517  and  _518
REMARK  217  A    between atoms: _521  and  _523
REMARK  218  A    between atoms: _523  and  _524
REMARK  219  A    between atoms: _523  and  _526
REMARK  220  A    between atoms: _526  and  _527
REMARK  221  A    between atoms: _533  and  _535
REMARK  222  A    between atoms: _535  and  _536
REMARK  223  A    between atoms: _538  and  _540
REMARK  224  A    between atoms: _540  and  _541
REMARK  225  A    between atoms: _540  and  _543
REMARK  226  A    between atoms: _543  and  _544
REMARK  227  A    between atoms: _547  and  _549
REMARK  228  A    between atoms: _549  and  _550
REMARK  229  A    between atoms: _552  and  _554
REMARK  230  A    between atoms: _554  and  _555
REMARK  231  A    between atoms: _554  and  _557
REMARK  232  A    between atoms: _557  and  _558
REMARK  233  A    between atoms: _563  and  _564
REMARK  234  A    between atoms: _566  and  _568
REMARK  235  A    between atoms: _568  and  _569
REMARK  236  A    between atoms: _568  and  _571
REMARK  237  A    between atoms: _571  and  _572
REMARK  238  A    between atoms: _575  and  _577
REMARK  239  A    between atoms: _577  and  _578
REMARK  240  A    between atoms: _577  and  _580
REMARK  241  A    between atoms: _580  and  _581
REMARK  242  A    between atoms: _584  and  _586
REMARK  243  A    between atoms: _586  and  _587
REMARK  244  A    between atoms: _586  and  _589
REMARK  245  A    between atoms: _592  and  _594
REMARK  246  A    between atoms: _594  and  _595
REMARK  247  A    between atoms: _594  and  _597
REMARK  248  A    between atoms: _597  and  _598
REMARK  249  A    between atoms: _598  and  _599
REMARK  250  A    between atoms: _605  and  _606
REMARK  251  A    between atoms: _611  and  _613
REMARK  252  A    between atoms: _613  and  _614
REMARK  253  A    between atoms: _613  and  _616
REMARK  254  A    between atoms: _616  and  _617
REMARK  255  A    between atoms: _617  and  _618
REMARK                            x       y       z     vdW  Elec       q    Type
REMARK                         _______ _______ _______ _____ _____    ______ ____
ROOT
ATOM      1  O   HOH     1      30.490  14.284  26.524  0.00  0.00    +0.000 OA
ENDROOT
TORSDOF 0
REMARK  Name = ../refined-set-2016/2web/2web_pocket.pdb
REMARK  255 active torsions:
REMARK  status: ('A' for Active; 'I' for Inactive)
REMARK    1  A    between atoms: _1  and  _3
REMARK    2  A    between atoms: _3  and  _4
REMARK    3  A    between atoms: _3  and  _6
REMARK    4  A    between atoms: _6  and  _7
REMARK    5  A    between atoms: _10  and  _12
REMARK    6  A    between atoms: _12  and  _13
REMARK    7  A    between atoms: _12  and  _15
REMARK    8  A    between atoms: _15  and  _16
REMARK    9  A    between atoms: _16  and  _17
REMARK   10  A    between atoms: _20  and  _22
REMARK   11  A    between atoms: _22  and  _23
REMARK   12  A    between atoms: _22  and  _25
REMARK   13  A    between atoms: _25  and  _26
REMARK   14  A    between atoms: _26  and  _27
REMARK   15  A    between atoms: _30  and  _32
REMARK   16  A    between atoms: _32  and  _33
REMARK   17  A    between atoms: _32  and  _35
REMARK   18  A    between atoms: _35  and  _36
REMARK   19  A    between atoms: _41  and  _42
REMARK   20  A    between atoms: _44  and  _46
REMARK   21  A    between atoms: _46  and  _47
REMARK   22  A    between atoms: _46  and  _49
REMARK   23  A    between atoms: _49  and  _50
REMARK   24  A    between atoms: _55  and  _57
REMARK   25  A    between atoms: _57  and  _58
REMARK   26  A    between atoms: _57  and  _60
REMARK   27  A    between atoms: _60  and  _61
REMARK   28  A    between atoms: _67  and  _69
REMARK   29  A    between atoms: _69  and  _70
REMARK   30  A    between atoms: _69  and  _72
REMARK   31  A    between atoms: _72  and  _73
REMARK   32  A    between atoms: _76  and  _78
REMARK   33  A    between atoms: _78  and  _79
REMARK   34  A    between atoms: _78  and  _81
REMARK   35  A    between atoms: _81  and  _82
REMARK   36  A    between atoms: _85  and  _87
REMARK   37  A    between atoms: _87  and  _88
REMARK   38  A    between atoms: _90  and  _92
REMARK   39  A    between atoms: _92  and  _93
REMARK   40  A    between atoms: _92  and  _95
REMARK   41  A    between atoms: _95  and  _96
REMARK   42  A    between atoms: _98  and  _100
REMARK   43  A    between atoms: _100  and  _101
REMARK   44  A    between atoms: _104  and  _106
REMARK   45  A    between atoms: _106  and  _107
REMARK   46  A    between atoms: _106  and  _109
REMARK   47  A    between atoms: _109  and  _110
REMARK   48  A    between atoms: _113  and  _115
REMARK   49  A    between atoms: _115  and  _116
REMARK   50  A    between atoms: _115  and  _118
REMARK   51  A    between atoms: _118  and  _119
REMARK   52  A    between atoms: _129  and  _131
REMARK   53  A    between atoms: _131  and  _132
REMARK   54  A    between atoms: _131  and  _134
REMARK   55  A    between atoms: _134  and  _135
REMARK   56  A    between atoms: _138  and  _140
REMARK   57  A    between atoms: _140  and  _141
REMARK   58  A    between atoms: _140  and  _143
REMARK   59  A    between atoms: _143  and  _144
REMARK   60  A    between atoms: _146  and  _148
REMARK   61  A    between atoms: _148  and  _149
REMARK   62  A    between atoms: _148  and  _151
REMARK   63  A    between atoms: _151  and  _152
REMARK   64  A    between atoms: _157  and  _158
REMARK   65  A    between atoms: _160  and  _162
REMARK   66  A    between atoms: _162  and  _163
REMARK   67  A    between atoms: _165  and  _167
REMARK   68  A    between atoms: _167  and  _168
REMARK   69  A    between atoms: _167  and  _170
REMARK   70  A    between atoms: _170  and  _171
REMARK   71  A    between atoms: _174  and  _176
REMARK   72  A    between atoms: _176  and  _177
REMARK   73  A    between atoms: _179  and  _181
REMARK   74  A    between atoms: _181  and  _182
REMARK   75  A    between atoms: _181  and  _184
REMARK   76  A    between atoms: _184  and  _185
REMARK   77  A    between atoms: _187  and  _189
REMARK   78  A    between atoms: _189  and  _190
REMARK   79  A    between atoms: _189  and  _192
REMARK   80  A    between atoms: _192  and  _193
REMARK   81  A    between atoms: _195  and  _197
REMARK   82  A    between atoms: _197  and  _198
REMARK   83  A    between atoms: _197  and  _200
REMARK   84  A    between atoms: _200  and  _201
REMARK   85  A    between atoms: _203  and  _205
REMARK   86  A    between atoms: _205  and  _206
REMARK   87  A    between atoms: _209  and  _211
REMARK   88  A    between atoms: _211  and  _212
REMARK   89  A    between atoms: _211  and  _214
REMARK   90  A    between atoms: _214  and  _215
REMARK   91  A    between atoms: _215  and  _216
REMARK   92  A    between atoms: _221  and  _223
REMARK   93  A    between atoms: _223  and  _224
REMARK   94  A    between atoms: _223  and  _226
REMARK   95  A    between atoms: _226  and  _227
REMARK   96  A    between atoms: _233  and  _235
REMARK   97  A    between atoms: _235  and  _236
REMARK   98  A    between atoms: _235  and  _238
REMARK   99  A    between atoms: _238  and  _239
REMARK  100  A    between atoms: _239  and  _240
REMARK  101  A    between atoms: _245  and  _247
REMARK  102  A    between atoms: _247  and  _248
REMARK  103  A    between atoms: _247  and  _250
REMARK  104  A    between atoms: _250  and  _251
REMARK  105  A    between atoms: _251  and  _252
REMARK  106  A    between atoms: _257  and  _259
REMARK  107  A    between atoms: _259  and  _260
REMARK  108  A    between atoms: _259  and  _262
REMARK  109  A    between atoms: _262  and  _263
REMARK  110  A    between atoms: _266  and  _268
REMARK  111  A    between atoms: _268  and  _269
REMARK  112  A    between atoms: _268  and  _271
REMARK  113  A    between atoms: _271  and  _272
REMARK  114  A    between atoms: _275  and  _277
REMARK  115  A    between atoms: _277  and  _278
REMARK  116  A    between atoms: _277  and  _280
REMARK  117  A    between atoms: _280  and  _281
REMARK  118  A    between atoms: _286  and  _288
REMARK  119  A    between atoms: _288  and  _289
REMARK  120  A    between atoms: _288  and  _291
REMARK  121  A    between atoms: _291  and  _292
REMARK  122  A    between atoms: _297  and  _299
REMARK  123  A    between atoms: _299  and  _300
REMARK  124  A    between atoms: _302  and  _304
REMARK  125  A    between atoms: _304  and  _305
REMARK  126  A    between atoms: _304  and  _307
REMARK  127  A    between atoms: _307  and  _308
REMARK  128  A    between atoms: _311  and  _313
REMARK  129  A    between atoms: _313  and  _314
REMARK  130  A    between atoms: _316  and  _318
REMARK  131  A    between atoms: _318  and  _319
REMARK  132  A    between atoms: _318  and  _321
REMARK  133  A    between atoms: _321  and  _322
REMARK  134  A    between atoms: _325  and  _327
REMARK  135  A    between atoms: _327  and  _328
REMARK  136  A    between atoms: _331  and  _333
REMARK  137  A    between atoms: _333  and  _334
REMARK  138  A    between atoms: _333  and  _336
REMARK  139  A    between atoms: _336  and  _337
REMARK  140  A    between atoms: _340  and  _342
REMARK  141  A    between atoms: _342  and  _343
REMARK  142  A    between atoms: _342  and  _345
REMARK  143  A    between atoms: _345  and  _346
REMARK  144  A    between atoms: _349  and  _351
REMARK  145  A    between atoms: _351  and  _352
REMARK  146  A    between atoms: _351  and  _354
REMARK  147  A    between atoms: _354  and  _355
REMARK  148  A    between atoms: _355  and  _356
REMARK  149  A    between atoms: _361  and  _363
REMARK  150  A    between atoms: _363  and  _364
REMARK  151  A    between atoms: _363  and  _366
REMARK  152  A    between atoms: _366  and  _367
REMARK  153  A    between atoms: _373  and  _375
REMARK  154  A    between atoms: _375  and  _376
REMARK  155  A    between atoms: _375  and  _378
REMARK  156  A    between atoms: _378  and  _379
REMARK  157  A    between atoms: _382  and  _384
REMARK  158  A    between atoms: _384  and  _385
REMARK  159  A    between atoms: _388  and  _390
REMARK  160  A    between atoms: _390  and  _391
REMARK  161  A    between atoms: _390  and  _393
REMARK  162  A    between atoms: _393  and  _394
REMARK  163  A    between atoms: _397  and  _399
REMARK  164  A    between atoms: _399  and  _400
REMARK  165  A    between atoms: _399  and  _402
REMARK  166  A    between atoms: _402  and  _403
REMARK  167  A    between atoms: _406  and  _408
REMARK  168  A    between atoms: _408  and  _409
REMARK  169  A    between atoms: _411  and  _413
REMARK  170  A    between atoms: _413  and  _414
REMARK  171  A    between atoms: _413  and  _416
REMARK  172  A    between atoms: _416  and  _417
REMARK  173  A    between atoms: _420  and  _422
REMARK  174  A    between atoms: _422  and  _423
REMARK  175  A    between atoms: _422  and  _425
REMARK  176  A    between atoms: _425  and  _426
REMARK  177  A    between atoms: _429  and  _431
REMARK  178  A    between atoms: _431  and  _432
REMARK  179  A    between atoms: _431  and  _434
REMARK  180  A    between atoms: _434  and  _435
REMARK  181  A    between atoms: _438  and  _440
REMARK  182  A    between atoms: _440  and  _441
REMARK  183  A    between atoms: _440  and  _443
REMARK  184  A    between atoms: _443  and  _444
REMARK  185  A    between atoms: _447  and  _449
REMARK  186  A    between atoms: _449  and  _450
REMARK  187  A    between atoms: _449  and  _452
REMARK  188  A    between atoms: _452  and  _453
REMARK  189  A    between atoms: _456  and  _458
REMARK  190  A    between atoms: _458  and  _459
REMARK  191  A    between atoms: _458  and  _461
REMARK  192  A    between atoms: _461  and  _462
REMARK  193  A    between atoms: _464  and  _466
REMARK  194  A    between atoms: _466  and  _467
REMARK  195  A    between atoms: _466  and  _469
REMARK  196  A    between atoms: _469  and  _470
REMARK  197  A    between atoms: _475  and  _477
REMARK  198  A    between atoms: _477  and  _478
REMARK  199  A    between atoms: _477  and  _480
REMARK  200  A    between atoms: _480  and  _481
REMARK  201  A    between atoms: _483  and  _485
REMARK  202  A    between atoms: _485  and  _486
REMARK  203  A    between atoms: _485  and  _488
REMARK  204  A    between atoms: _488  and  _489
REMARK  205  A    between atoms: _492  and  _494
REMARK  206  A    between atoms: _494  and  _495
REMARK  207  A    between atoms: _494  and  _497
REMARK  208  A    between atoms: _497  and  _498
REMARK  209  A    between atoms: _504  and  _506
REMARK  210  A    between atoms: _506  and  _507
REMARK  211  A    between atoms: _506  and  _509
REMARK  212  A    between atoms: _509  and  _510
REMARK  213  A    between atoms: _512  and  _514
REMARK  214  A    between atoms: _514  and  _515
REMARK  215  A    between atoms: _514  and  _517
REMARK  216  A    between atoms: _517  and  _518
REMARK  217  A    between atoms: _521  and  _523
REMARK  218  A    between atoms: _523  and  _524
REMARK  219  A    between atoms: _523  and  _526
REMARK  220  A    between atoms: _526  and  _527
REMARK  221  A    between atoms: _533  and  _535
REMARK  222  A    between atoms: _535  and  _536
REMARK  223  A    between atoms: _538  and  _540
REMARK  224  A    between atoms: _540  and  _541
REMARK  225  A    between atoms: _540  and  _543
REMARK  226  A    between atoms: _543  and  _544
REMARK  227  A    between atoms: _547  and  _549
REMARK  228  A    between atoms: _549  and  _550
REMARK  229  A    between atoms: _552  and  _554
REMARK  230  A    between atoms: _554  and  _555
REMARK  231  A    between atoms: _554  and  _557
REMARK  232  A    between atoms: _557  and  _558
REMARK  233  A    between atoms: _563  and  _564
REMARK  234  A    between atoms: _566  and  _568
REMARK  235  A    between atoms: _568  and  _569
REMARK  236  A    between atoms: _568  and  _571
REMARK  237  A    between atoms: _571  and  _572
REMARK  238  A    between atoms: _575  and  _577
REMARK  239  A    between atoms: _577  and  _578
REMARK  240  A    between atoms: _577  and  _580
REMARK  241  A    between atoms: _580  and  _581
REMARK  242  A    between atoms: _584  and  _586
REMARK  243  A    between atoms: _586  and  _587
REMARK  244  A    between atoms: _586  and  _589
REMARK  245  A    between atoms: _592  and  _594
REMARK  246  A    between atoms: _594  and  _595
REMARK  247  A    between atoms: _594  and  _597
REMARK  248  A    between atoms: _597  and  _598
REMARK  249  A    between atoms: _598  and  _599
REMARK  250  A    between atoms: _605  and  _606
REMARK  251  A    between atoms: _611  and  _613
REMARK  252  A    between atoms: _613  and  _614
REMARK  253  A    between atoms: _613  and  _616
REMARK  254  A    between atoms: _616  and  _617
REMARK  255  A    between atoms: _617  and  _618
REMARK                            x       y       z     vdW  Elec       q    Type
REMARK                         _______ _______ _______ _____ _____    ______ ____
ROOT
ATOM      1  O   HOH     1      17.170  10.239  28.773  0.00  0.00    +0.000 OA
ENDROOT
TORSDOF 0
REMARK  Name = ../refined-set-2016/2web/2web_pocket.pdb
REMARK  255 active torsions:
REMARK  status: ('A' for Active; 'I' for Inactive)
REMARK    1  A    between atoms: _1  and  _3
REMARK    2  A    between atoms: _3  and  _4
REMARK    3  A    between atoms: _3  and  _6
REMARK    4  A    between atoms: _6  and  _7
REMARK    5  A    between atoms: _10  and  _12
REMARK    6  A    between atoms: _12  and  _13
REMARK    7  A    between atoms: _12  and  _15
REMARK    8  A    between atoms: _15  and  _16
REMARK    9  A    between atoms: _16  and  _17
REMARK   10  A    between atoms: _20  and  _22
REMARK   11  A    between atoms: _22  and  _23
REMARK   12  A    between atoms: _22  and  _25
REMARK   13  A    between atoms: _25  and  _26
REMARK   14  A    between atoms: _26  and  _27
REMARK   15  A    between atoms: _30  and  _32
REMARK   16  A    between atoms: _32  and  _33
REMARK   17  A    between atoms: _32  and  _35
REMARK   18  A    between atoms: _35  and  _36
REMARK   19  A    between atoms: _41  and  _42
REMARK   20  A    between atoms: _44  and  _46
REMARK   21  A    between atoms: _46  and  _47
REMARK   22  A    between atoms: _46  and  _49
REMARK   23  A    between atoms: _49  and  _50
REMARK   24  A    between atoms: _55  and  _57
REMARK   25  A    between atoms: _57  and  _58
REMARK   26  A    between atoms: _57  and  _60
REMARK   27  A    between atoms: _60  and  _61
REMARK   28  A    between atoms: _67  and  _69
REMARK   29  A    between atoms: _69  and  _70
REMARK   30  A    between atoms: _69  and  _72
REMARK   31  A    between atoms: _72  and  _73
REMARK   32  A    between atoms: _76  and  _78
REMARK   33  A    between atoms: _78  and  _79
REMARK   34  A    between atoms: _78  and  _81
REMARK   35  A    between atoms: _81  and  _82
REMARK   36  A    between atoms: _85  and  _87
REMARK   37  A    between atoms: _87  and  _88
REMARK   38  A    between atoms: _90  and  _92
REMARK   39  A    between atoms: _92  and  _93
REMARK   40  A    between atoms: _92  and  _95
REMARK   41  A    between atoms: _95  and  _96
REMARK   42  A    between atoms: _98  and  _100
REMARK   43  A    between atoms: _100  and  _101
REMARK   44  A    between atoms: _104  and  _106
REMARK   45  A    between atoms: _106  and  _107
REMARK   46  A    between atoms: _106  and  _109
REMARK   47  A    between atoms: _109  and  _110
REMARK   48  A    between atoms: _113  and  _115
REMARK   49  A    between atoms: _115  and  _116
REMARK   50  A    between atoms: _115  and  _118
REMARK   51  A    between atoms: _118  and  _119
REMARK   52  A    between atoms: _129  and  _131
REMARK   53  A    between atoms: _131  and  _132
REMARK   54  A    between atoms: _131  and  _134
REMARK   55  A    between atoms: _134  and  _135
REMARK   56  A    between atoms: _138  and  _140
REMARK   57  A    between atoms: _140  and  _141
REMARK   58  A    between atoms: _140  and  _143
REMARK   59  A    between atoms: _143  and  _144
REMARK   60  A    between atoms: _146  and  _148
REMARK   61  A    between atoms: _148  and  _149
REMARK   62  A    between atoms: _148  and  _151
REMARK   63  A    between atoms: _151  and  _152
REMARK   64  A    between atoms: _157  and  _158
REMARK   65  A    between atoms: _160  and  _162
REMARK   66  A    between atoms: _162  and  _163
REMARK   67  A    between atoms: _165  and  _167
REMARK   68  A    between atoms: _167  and  _168
REMARK   69  A    between atoms: _167  and  _170
REMARK   70  A    between atoms: _170  and  _171
REMARK   71  A    between atoms: _174  and  _176
REMARK   72  A    between atoms: _176  and  _177
REMARK   73  A    between atoms: _179  and  _181
REMARK   74  A    between atoms: _181  and  _182
REMARK   75  A    between atoms: _181  and  _184
REMARK   76  A    between atoms: _184  and  _185
REMARK   77  A    between atoms: _187  and  _189
REMARK   78  A    between atoms: _189  and  _190
REMARK   79  A    between atoms: _189  and  _192
REMARK   80  A    between atoms: _192  and  _193
REMARK   81  A    between atoms: _195  and  _197
REMARK   82  A    between atoms: _197  and  _198
REMARK   83  A    between atoms: _197  and  _200
REMARK   84  A    between atoms: _200  and  _201
REMARK   85  A    between atoms: _203  and  _205
REMARK   86  A    between atoms: _205  and  _206
REMARK   87  A    between atoms: _209  and  _211
REMARK   88  A    between atoms: _211  and  _212
REMARK   89  A    between atoms: _211  and  _214
REMARK   90  A    between atoms: _214  and  _215
REMARK   91  A    between atoms: _215  and  _216
REMARK   92  A    between atoms: _221  and  _223
REMARK   93  A    between atoms: _223  and  _224
REMARK   94  A    between atoms: _223  and  _226
REMARK   95  A    between atoms: _226  and  _227
REMARK   96  A    between atoms: _233  and  _235
REMARK   97  A    between atoms: _235  and  _236
REMARK   98  A    between atoms: _235  and  _238
REMARK   99  A    between atoms: _238  and  _239
REMARK  100  A    between atoms: _239  and  _240
REMARK  101  A    between atoms: _245  and  _247
REMARK  102  A    between atoms: _247  and  _248
REMARK  103  A    between atoms: _247  and  _250
REMARK  104  A    between atoms: _250  and  _251
REMARK  105  A    between atoms: _251  and  _252
REMARK  106  A    between atoms: _257  and  _259
REMARK  107  A    between atoms: _259  and  _260
REMARK  108  A    between atoms: _259  and  _262
REMARK  109  A    between atoms: _262  and  _263
REMARK  110  A    between atoms: _266  and  _268
REMARK  111  A    between atoms: _268  and  _269
REMARK  112  A    between atoms: _268  and  _271
REMARK  113  A    between atoms: _271  and  _272
REMARK  114  A    between atoms: _275  and  _277
REMARK  115  A    between atoms: _277  and  _278
REMARK  116  A    between atoms: _277  and  _280
REMARK  117  A    between atoms: _280  and  _281
REMARK  118  A    between atoms: _286  and  _288
REMARK  119  A    between atoms: _288  and  _289
REMARK  120  A    between atoms: _288  and  _291
REMARK  121  A    between atoms: _291  and  _292
REMARK  122  A    between atoms: _297  and  _299
REMARK  123  A    between atoms: _299  and  _300
REMARK  124  A    between atoms: _302  and  _304
REMARK  125  A    between atoms: _304  and  _305
REMARK  126  A    between atoms: _304  and  _307
REMARK  127  A    between atoms: _307  and  _308
REMARK  128  A    between atoms: _311  and  _313
REMARK  129  A    between atoms: _313  and  _314
REMARK  130  A    between atoms: _316  and  _318
REMARK  131  A    between atoms: _318  and  _319
REMARK  132  A    between atoms: _318  and  _321
REMARK  133  A    between atoms: _321  and  _322
REMARK  134  A    between atoms: _325  and  _327
REMARK  135  A    between atoms: _327  and  _328
REMARK  136  A    between atoms: _331  and  _333
REMARK  137  A    between atoms: _333  and  _334
REMARK  138  A    between atoms: _333  and  _336
REMARK  139  A    between atoms: _336  and  _337
REMARK  140  A    between atoms: _340  and  _342
REMARK  141  A    between atoms: _342  and  _343
REMARK  142  A    between atoms: _342  and  _345
REMARK  143  A    between atoms: _345  and  _346
REMARK  144  A    between atoms: _349  and  _351
REMARK  145  A    between atoms: _351  and  _352
REMARK  146  A    between atoms: _351  and  _354
REMARK  147  A    between atoms: _354  and  _355
REMARK  148  A    between atoms: _355  and  _356
REMARK  149  A    between atoms: _361  and  _363
REMARK  150  A    between atoms: _363  and  _364
REMARK  151  A    between atoms: _363  and  _366
REMARK  152  A    between atoms: _366  and  _367
REMARK  153  A    between atoms: _373  and  _375
REMARK  154  A    between atoms: _375  and  _376
REMARK  155  A    between atoms: _375  and  _378
REMARK  156  A    between atoms: _378  and  _379
REMARK  157  A    between atoms: _382  and  _384
REMARK  158  A    between atoms: _384  and  _385
REMARK  159  A    between atoms: _388  and  _390
REMARK  160  A    between atoms: _390  and  _391
REMARK  161  A    between atoms: _390  and  _393
REMARK  162  A    between atoms: _393  and  _394
REMARK  163  A    between atoms: _397  and  _399
REMARK  164  A    between atoms: _399  and  _400
REMARK  165  A    between atoms: _399  and  _402
REMARK  166  A    between atoms: _402  and  _403
REMARK  167  A    between atoms: _406  and  _408
REMARK  168  A    between atoms: _408  and  _409
REMARK  169  A    between atoms: _411  and  _413
REMARK  170  A    between atoms: _413  and  _414
REMARK  171  A    between atoms: _413  and  _416
REMARK  172  A    between atoms: _416  and  _417
REMARK  173  A    between atoms: _420  and  _422
REMARK  174  A    between atoms: _422  and  _423
REMARK  175  A    between atoms: _422  and  _425
REMARK  176  A    between atoms: _425  and  _426
REMARK  177  A    between atoms: _429  and  _431
REMARK  178  A    between atoms: _431  and  _432
REMARK  179  A    between atoms: _431  and  _434
REMARK  180  A    between atoms: _434  and  _435
REMARK  181  A    between atoms: _438  and  _440
REMARK  182  A    between atoms: _440  and  _441
REMARK  183  A    between atoms: _440  and  _443
REMARK  184  A    between atoms: _443  and  _444
REMARK  185  A    between atoms: _447  and  _449
REMARK  186  A    between atoms: _449  and  _450
REMARK  187  A    between atoms: _449  and  _452
REMARK  188  A    between atoms: _452  and  _453
REMARK  189  A    between atoms: _456  and  _458
REMARK  190  A    between atoms: _458  and  _459
REMARK  191  A    between atoms: _458  and  _461
REMARK  192  A    between atoms: _461  and  _462
REMARK  193  A    between atoms: _464  and  _466
REMARK  194  A    between atoms: _466  and  _467
REMARK  195  A    between atoms: _466  and  _469
REMARK  196  A    between atoms: _469  and  _470
REMARK  197  A    between atoms: _475  and  _477
REMARK  198  A    between atoms: _477  and  _478
REMARK  199  A    between atoms: _477  and  _480
REMARK  200  A    between atoms: _480  and  _481
REMARK  201  A    between atoms: _483  and  _485
REMARK  202  A    between atoms: _485  and  _486
REMARK  203  A    between atoms: _485  and  _488
REMARK  204  A    between atoms: _488  and  _489
REMARK  205  A    between atoms: _492  and  _494
REMARK  206  A    between atoms: _494  and  _495
REMARK  207  A    between atoms: _494  and  _497
REMARK  208  A    between atoms: _497  and  _498
REMARK  209  A    between atoms: _504  and  _506
REMARK  210  A    between atoms: _506  and  _507
REMARK  211  A    between atoms: _506  and  _509
REMARK  212  A    between atoms: _509  and  _510
REMARK  213  A    between atoms: _512  and  _514
REMARK  214  A    between atoms: _514  and  _515
REMARK  215  A    between atoms: _514  and  _517
REMARK  216  A    between atoms: _517  and  _518
REMARK  217  A    between atoms: _521  and  _523
REMARK  218  A    between atoms: _523  and  _524
REMARK  219  A    between atoms: _523  and  _526
REMARK  220  A    between atoms: _526  and  _527
REMARK  221  A    between atoms: _533  and  _535
REMARK  222  A    between atoms: _535  and  _536
REMARK  223  A    between atoms: _538  and  _540
REMARK  224  A    between atoms: _540  and  _541
REMARK  225  A    between atoms: _540  and  _543
REMARK  226  A    between atoms: _543  and  _544
REMARK  227  A    between atoms: _547  and  _549
REMARK  228  A    between atoms: _549  and  _550
REMARK  229  A    between atoms: _552  and  _554
REMARK  230  A    between atoms: _554  and  _555
REMARK  231  A    between atoms: _554  and  _557
REMARK  232  A    between atoms: _557  and  _558
REMARK  233  A    between atoms: _563  and  _564
REMARK  234  A    between atoms: _566  and  _568
REMARK  235  A    between atoms: _568  and  _569
REMARK  236  A    between atoms: _568  and  _571
REMARK  237  A    between atoms: _571  and  _572
REMARK  238  A    between atoms: _575  and  _577
REMARK  239  A    between atoms: _577  and  _578
REMARK  240  A    between atoms: _577  and  _580
REMARK  241  A    between atoms: _580  and  _581
REMARK  242  A    between atoms: _584  and  _586
REMARK  243  A    between atoms: _586  and  _587
REMARK  244  A    between atoms: _586  and  _589
REMARK  245  A    between atoms: _592  and  _594
REMARK  246  A    between atoms: _594  and  _595
REMARK  247  A    between atoms: _594  and  _597
REMARK  248  A    between atoms: _597  and  _598
REMARK  249  A    between atoms: _598  and  _599
REMARK  250  A    between atoms: _605  and  _606
REMARK  251  A    between atoms: _611  and  _613
REMARK  252  A    between atoms: _613  and  _614
REMARK  253  A    between atoms: _613  and  _616
REMARK  254  A    between atoms: _616  and  _617
REMARK  255  A    between atoms: _617  and  _618
REMARK                            x       y       z     vdW  Elec       q    Type
REMARK                         _______ _______ _______ _____ _____    ______ ____
ROOT
ATOM      1  O   HOH     1      11.965   6.875  25.884  0.00  0.00    +0.000 OA
ENDROOT
TORSDOF 0
REMARK  Name = ../refined-set-2016/2web/2web_pocket.pdb
REMARK  255 active torsions:
REMARK  status: ('A' for Active; 'I' for Inactive)
REMARK    1  A    between atoms: _1  and  _3
REMARK    2  A    between atoms: _3  and  _4
REMARK    3  A    between atoms: _3  and  _6
REMARK    4  A    between atoms: _6  and  _7
REMARK    5  A    between atoms: _10  and  _12
REMARK    6  A    between atoms: _12  and  _13
REMARK    7  A    between atoms: _12  and  _15
REMARK    8  A    between atoms: _15  and  _16
REMARK    9  A    between atoms: _16  and  _17
REMARK   10  A    between atoms: _20  and  _22
REMARK   11  A    between atoms: _22  and  _23
REMARK   12  A    between atoms: _22  and  _25
REMARK   13  A    between atoms: _25  and  _26
REMARK   14  A    between atoms: _26  and  _27
REMARK   15  A    between atoms: _30  and  _32
REMARK   16  A    between atoms: _32  and  _33
REMARK   17  A    between atoms: _32  and  _35
REMARK   18  A    between atoms: _35  and  _36
REMARK   19  A    between atoms: _41  and  _42
REMARK   20  A    between atoms: _44  and  _46
REMARK   21  A    between atoms: _46  and  _47
REMARK   22  A    between atoms: _46  and  _49
REMARK   23  A    between atoms: _49  and  _50
REMARK   24  A    between atoms: _55  and  _57
REMARK   25  A    between atoms: _57  and  _58
REMARK   26  A    between atoms: _57  and  _60
REMARK   27  A    between atoms: _60  and  _61
REMARK   28  A    between atoms: _67  and  _69
REMARK   29  A    between atoms: _69  and  _70
REMARK   30  A    between atoms: _69  and  _72
REMARK   31  A    between atoms: _72  and  _73
REMARK   32  A    between atoms: _76  and  _78
REMARK   33  A    between atoms: _78  and  _79
REMARK   34  A    between atoms: _78  and  _81
REMARK   35  A    between atoms: _81  and  _82
REMARK   36  A    between atoms: _85  and  _87
REMARK   37  A    between atoms: _87  and  _88
REMARK   38  A    between atoms: _90  and  _92
REMARK   39  A    between atoms: _92  and  _93
REMARK   40  A    between atoms: _92  and  _95
REMARK   41  A    between atoms: _95  and  _96
REMARK   42  A    between atoms: _98  and  _100
REMARK   43  A    between atoms: _100  and  _101
REMARK   44  A    between atoms: _104  and  _106
REMARK   45  A    between atoms: _106  and  _107
REMARK   46  A    between atoms: _106  and  _109
REMARK   47  A    between atoms: _109  and  _110
REMARK   48  A    between atoms: _113  and  _115
REMARK   49  A    between atoms: _115  and  _116
REMARK   50  A    between atoms: _115  and  _118
REMARK   51  A    between atoms: _118  and  _119
REMARK   52  A    between atoms: _129  and  _131
REMARK   53  A    between atoms: _131  and  _132
REMARK   54  A    between atoms: _131  and  _134
REMARK   55  A    between atoms: _134  and  _135
REMARK   56  A    between atoms: _138  and  _140
REMARK   57  A    between atoms: _140  and  _141
REMARK   58  A    between atoms: _140  and  _143
REMARK   59  A    between atoms: _143  and  _144
REMARK   60  A    between atoms: _146  and  _148
REMARK   61  A    between atoms: _148  and  _149
REMARK   62  A    between atoms: _148  and  _151
REMARK   63  A    between atoms: _151  and  _152
REMARK   64  A    between atoms: _157  and  _158
REMARK   65  A    between atoms: _160  and  _162
REMARK   66  A    between atoms: _162  and  _163
REMARK   67  A    between atoms: _165  and  _167
REMARK   68  A    between atoms: _167  and  _168
REMARK   69  A    between atoms: _167  and  _170
REMARK   70  A    between atoms: _170  and  _171
REMARK   71  A    between atoms: _174  and  _176
REMARK   72  A    between atoms: _176  and  _177
REMARK   73  A    between atoms: _179  and  _181
REMARK   74  A    between atoms: _181  and  _182
REMARK   75  A    between atoms: _181  and  _184
REMARK   76  A    between atoms: _184  and  _185
REMARK   77  A    between atoms: _187  and  _189
REMARK   78  A    between atoms: _189  and  _190
REMARK   79  A    between atoms: _189  and  _192
REMARK   80  A    between atoms: _192  and  _193
REMARK   81  A    between atoms: _195  and  _197
REMARK   82  A    between atoms: _197  and  _198
REMARK   83  A    between atoms: _197  and  _200
REMARK   84  A    between atoms: _200  and  _201
REMARK   85  A    between atoms: _203  and  _205
REMARK   86  A    between atoms: _205  and  _206
REMARK   87  A    between atoms: _209  and  _211
REMARK   88  A    between atoms: _211  and  _212
REMARK   89  A    between atoms: _211  and  _214
REMARK   90  A    between atoms: _214  and  _215
REMARK   91  A    between atoms: _215  and  _216
REMARK   92  A    between atoms: _221  and  _223
REMARK   93  A    between atoms: _223  and  _224
REMARK   94  A    between atoms: _223  and  _226
REMARK   95  A    between atoms: _226  and  _227
REMARK   96  A    between atoms: _233  and  _235
REMARK   97  A    between atoms: _235  and  _236
REMARK   98  A    between atoms: _235  and  _238
REMARK   99  A    between atoms: _238  and  _239
REMARK  100  A    between atoms: _239  and  _240
REMARK  101  A    between atoms: _245  and  _247
REMARK  102  A    between atoms: _247  and  _248
REMARK  103  A    between atoms: _247  and  _250
REMARK  104  A    between atoms: _250  and  _251
REMARK  105  A    between atoms: _251  and  _252
REMARK  106  A    between atoms: _257  and  _259
REMARK  107  A    between atoms: _259  and  _260
REMARK  108  A    between atoms: _259  and  _262
REMARK  109  A    between atoms: _262  and  _263
REMARK  110  A    between atoms: _266  and  _268
REMARK  111  A    between atoms: _268  and  _269
REMARK  112  A    between atoms: _268  and  _271
REMARK  113  A    between atoms: _271  and  _272
REMARK  114  A    between atoms: _275  and  _277
REMARK  115  A    between atoms: _277  and  _278
REMARK  116  A    between atoms: _277  and  _280
REMARK  117  A    between atoms: _280  and  _281
REMARK  118  A    between atoms: _286  and  _288
REMARK  119  A    between atoms: _288  and  _289
REMARK  120  A    between atoms: _288  and  _291
REMARK  121  A    between atoms: _291  and  _292
REMARK  122  A    between atoms: _297  and  _299
REMARK  123  A    between atoms: _299  and  _300
REMARK  124  A    between atoms: _302  and  _304
REMARK  125  A    between atoms: _304  and  _305
REMARK  126  A    between atoms: _304  and  _307
REMARK  127  A    between atoms: _307  and  _308
REMARK  128  A    between atoms: _311  and  _313
REMARK  129  A    between atoms: _313  and  _314
REMARK  130  A    between atoms: _316  and  _318
REMARK  131  A    between atoms: _318  and  _319
REMARK  132  A    between atoms: _318  and  _321
REMARK  133  A    between atoms: _321  and  _322
REMARK  134  A    between atoms: _325  and  _327
REMARK  135  A    between atoms: _327  and  _328
REMARK  136  A    between atoms: _331  and  _333
REMARK  137  A    between atoms: _333  and  _334
REMARK  138  A    between atoms: _333  and  _336
REMARK  139  A    between atoms: _336  and  _337
REMARK  140  A    between atoms: _340  and  _342
REMARK  141  A    between atoms: _342  and  _343
REMARK  142  A    between atoms: _342  and  _345
REMARK  143  A    between atoms: _345  and  _346
REMARK  144  A    between atoms: _349  and  _351
REMARK  145  A    between atoms: _351  and  _352
REMARK  146  A    between atoms: _351  and  _354
REMARK  147  A    between atoms: _354  and  _355
REMARK  148  A    between atoms: _355  and  _356
REMARK  149  A    between atoms: _361  and  _363
REMARK  150  A    between atoms: _363  and  _364
REMARK  151  A    between atoms: _363  and  _366
REMARK  152  A    between atoms: _366  and  _367
REMARK  153  A    between atoms: _373  and  _375
REMARK  154  A    between atoms: _375  and  _376
REMARK  155  A    between atoms: _375  and  _378
REMARK  156  A    between atoms: _378  and  _379
REMARK  157  A    between atoms: _382  and  _384
REMARK  158  A    between atoms: _384  and  _385
REMARK  159  A    between atoms: _388  and  _390
REMARK  160  A    between atoms: _390  and  _391
REMARK  161  A    between atoms: _390  and  _393
REMARK  162  A    between atoms: _393  and  _394
REMARK  163  A    between atoms: _397  and  _399
REMARK  164  A    between atoms: _399  and  _400
REMARK  165  A    between atoms: _399  and  _402
REMARK  166  A    between atoms: _402  and  _403
REMARK  167  A    between atoms: _406  and  _408
REMARK  168  A    between atoms: _408  and  _409
REMARK  169  A    between atoms: _411  and  _413
REMARK  170  A    between atoms: _413  and  _414
REMARK  171  A    between atoms: _413  and  _416
REMARK  172  A    between atoms: _416  and  _417
REMARK  173  A    between atoms: _420  and  _422
REMARK  174  A    between atoms: _422  and  _423
REMARK  175  A    between atoms: _422  and  _425
REMARK  176  A    between atoms: _425  and  _426
REMARK  177  A    between atoms: _429  and  _431
REMARK  178  A    between atoms: _431  and  _432
REMARK  179  A    between atoms: _431  and  _434
REMARK  180  A    between atoms: _434  and  _435
REMARK  181  A    between atoms: _438  and  _440
REMARK  182  A    between atoms: _440  and  _441
REMARK  183  A    between atoms: _440  and  _443
REMARK  184  A    between atoms: _443  and  _444
REMARK  185  A    between atoms: _447  and  _449
REMARK  186  A    between atoms: _449  and  _450
REMARK  187  A    between atoms: _449  and  _452
REMARK  188  A    between atoms: _452  and  _453
REMARK  189  A    between atoms: _456  and  _458
REMARK  190  A    between atoms: _458  and  _459
REMARK  191  A    between atoms: _458  and  _461
REMARK  192  A    between atoms: _461  and  _462
REMARK  193  A    between atoms: _464  and  _466
REMARK  194  A    between atoms: _466  and  _467
REMARK  195  A    between atoms: _466  and  _469
REMARK  196  A    between atoms: _469  and  _470
REMARK  197  A    between atoms: _475  and  _477
REMARK  198  A    between atoms: _477  and  _478
REMARK  199  A    between atoms: _477  and  _480
REMARK  200  A    between atoms: _480  and  _481
REMARK  201  A    between atoms: _483  and  _485
REMARK  202  A    between atoms: _485  and  _486
REMARK  203  A    between atoms: _485  and  _488
REMARK  204  A    between atoms: _488  and  _489
REMARK  205  A    between atoms: _492  and  _494
REMARK  206  A    between atoms: _494  and  _495
REMARK  207  A    between atoms: _494  and  _497
REMARK  208  A    between atoms: _497  and  _498
REMARK  209  A    between atoms: _504  and  _506
REMARK  210  A    between atoms: _506  and  _507
REMARK  211  A    between atoms: _506  and  _509
REMARK  212  A    between atoms: _509  and  _510
REMARK  213  A    between atoms: _512  and  _514
REMARK  214  A    between atoms: _514  and  _515
REMARK  215  A    between atoms: _514  and  _517
REMARK  216  A    between atoms: _517  and  _518
REMARK  217  A    between atoms: _521  and  _523
REMARK  218  A    between atoms: _523  and  _524
REMARK  219  A    between atoms: _523  and  _526
REMARK  220  A    between atoms: _526  and  _527
REMARK  221  A    between atoms: _533  and  _535
REMARK  222  A    between atoms: _535  and  _536
REMARK  223  A    between atoms: _538  and  _540
REMARK  224  A    between atoms: _540  and  _541
REMARK  225  A    between atoms: _540  and  _543
REMARK  226  A    between atoms: _543  and  _544
REMARK  227  A    between atoms: _547  and  _549
REMARK  228  A    between atoms: _549  and  _550
REMARK  229  A    between atoms: _552  and  _554
REMARK  230  A    between atoms: _554  and  _555
REMARK  231  A    between atoms: _554  and  _557
REMARK  232  A    between atoms: _557  and  _558
REMARK  233  A    between atoms: _563  and  _564
REMARK  234  A    between atoms: _566  and  _568
REMARK  235  A    between atoms: _568  and  _569
REMARK  236  A    between atoms: _568  and  _571
REMARK  237  A    between atoms: _571  and  _572
REMARK  238  A    between atoms: _575  and  _577
REMARK  239  A    between atoms: _577  and  _578
REMARK  240  A    between atoms: _577  and  _580
REMARK  241  A    between atoms: _580  and  _581
REMARK  242  A    between atoms: _584  and  _586
REMARK  243  A    between atoms: _586  and  _587
REMARK  244  A    between atoms: _586  and  _589
REMARK  245  A    between atoms: _592  and  _594
REMARK  246  A    between atoms: _594  and  _595
REMARK  247  A    between atoms: _594  and  _597
REMARK  248  A    between atoms: _597  and  _598
REMARK  249  A    between atoms: _598  and  _599
REMARK  250  A    between atoms: _605  and  _606
REMARK  251  A    between atoms: _611  and  _613
REMARK  252  A    between atoms: _613  and  _614
REMARK  253  A    between atoms: _613  and  _616
REMARK  254  A    between atoms: _616  and  _617
REMARK  255  A    between atoms: _617  and  _618
REMARK                            x       y       z     vdW  Elec       q    Type
REMARK                         _______ _______ _______ _____ _____    ______ ____
ROOT
ATOM      1  O   HOH     1      29.968  16.257  31.205  0.00  0.00    +0.000 OA
ENDROOT
TORSDOF 0
REMARK  Name = ../refined-set-2016/2web/2web_pocket.pdb
REMARK  255 active torsions:
REMARK  status: ('A' for Active; 'I' for Inactive)
REMARK    1  A    between atoms: _1  and  _3
REMARK    2  A    between atoms: _3  and  _4
REMARK    3  A    between atoms: _3  and  _6
REMARK    4  A    between atoms: _6  and  _7
REMARK    5  A    between atoms: _10  and  _12
REMARK    6  A    between atoms: _12  and  _13
REMARK    7  A    between atoms: _12  and  _15
REMARK    8  A    between atoms: _15  and  _16
REMARK    9  A    between atoms: _16  and  _17
REMARK   10  A    between atoms: _20  and  _22
REMARK   11  A    between atoms: _22  and  _23
REMARK   12  A    between atoms: _22  and  _25
REMARK   13  A    between atoms: _25  and  _26
REMARK   14  A    between atoms: _26  and  _27
REMARK   15  A    between atoms: _30  and  _32
REMARK   16  A    between atoms: _32  and  _33
REMARK   17  A    between atoms: _32  and  _35
REMARK   18  A    between atoms: _35  and  _36
REMARK   19  A    between atoms: _41  and  _42
REMARK   20  A    between atoms: _44  and  _46
REMARK   21  A    between atoms: _46  and  _47
REMARK   22  A    between atoms: _46  and  _49
REMARK   23  A    between atoms: _49  and  _50
REMARK   24  A    between atoms: _55  and  _57
REMARK   25  A    between atoms: _57  and  _58
REMARK   26  A    between atoms: _57  and  _60
REMARK   27  A    between atoms: _60  and  _61
REMARK   28  A    between atoms: _67  and  _69
REMARK   29  A    between atoms: _69  and  _70
REMARK   30  A    between atoms: _69  and  _72
REMARK   31  A    between atoms: _72  and  _73
REMARK   32  A    between atoms: _76  and  _78
REMARK   33  A    between atoms: _78  and  _79
REMARK   34  A    between atoms: _78  and  _81
REMARK   35  A    between atoms: _81  and  _82
REMARK   36  A    between atoms: _85  and  _87
REMARK   37  A    between atoms: _87  and  _88
REMARK   38  A    between atoms: _90  and  _92
REMARK   39  A    between atoms: _92  and  _93
REMARK   40  A    between atoms: _92  and  _95
REMARK   41  A    between atoms: _95  and  _96
REMARK   42  A    between atoms: _98  and  _100
REMARK   43  A    between atoms: _100  and  _101
REMARK   44  A    between atoms: _104  and  _106
REMARK   45  A    between atoms: _106  and  _107
REMARK   46  A    between atoms: _106  and  _109
REMARK   47  A    between atoms: _109  and  _110
REMARK   48  A    between atoms: _113  and  _115
REMARK   49  A    between atoms: _115  and  _116
REMARK   50  A    between atoms: _115  and  _118
REMARK   51  A    between atoms: _118  and  _119
REMARK   52  A    between atoms: _129  and  _131
REMARK   53  A    between atoms: _131  and  _132
REMARK   54  A    between atoms: _131  and  _134
REMARK   55  A    between atoms: _134  and  _135
REMARK   56  A    between atoms: _138  and  _140
REMARK   57  A    between atoms: _140  and  _141
REMARK   58  A    between atoms: _140  and  _143
REMARK   59  A    between atoms: _143  and  _144
REMARK   60  A    between atoms: _146  and  _148
REMARK   61  A    between atoms: _148  and  _149
REMARK   62  A    between atoms: _148  and  _151
REMARK   63  A    between atoms: _151  and  _152
REMARK   64  A    between atoms: _157  and  _158
REMARK   65  A    between atoms: _160  and  _162
REMARK   66  A    between atoms: _162  and  _163
REMARK   67  A    between atoms: _165  and  _167
REMARK   68  A    between atoms: _167  and  _168
REMARK   69  A    between atoms: _167  and  _170
REMARK   70  A    between atoms: _170  and  _171
REMARK   71  A    between atoms: _174  and  _176
REMARK   72  A    between atoms: _176  and  _177
REMARK   73  A    between atoms: _179  and  _181
REMARK   74  A    between atoms: _181  and  _182
REMARK   75  A    between atoms: _181  and  _184
REMARK   76  A    between atoms: _184  and  _185
REMARK   77  A    between atoms: _187  and  _189
REMARK   78  A    between atoms: _189  and  _190
REMARK   79  A    between atoms: _189  and  _192
REMARK   80  A    between atoms: _192  and  _193
REMARK   81  A    between atoms: _195  and  _197
REMARK   82  A    between atoms: _197  and  _198
REMARK   83  A    between atoms: _197  and  _200
REMARK   84  A    between atoms: _200  and  _201
REMARK   85  A    between atoms: _203  and  _205
REMARK   86  A    between atoms: _205  and  _206
REMARK   87  A    between atoms: _209  and  _211
REMARK   88  A    between atoms: _211  and  _212
REMARK   89  A    between atoms: _211  and  _214
REMARK   90  A    between atoms: _214  and  _215
REMARK   91  A    between atoms: _215  and  _216
REMARK   92  A    between atoms: _221  and  _223
REMARK   93  A    between atoms: _223  and  _224
REMARK   94  A    between atoms: _223  and  _226
REMARK   95  A    between atoms: _226  and  _227
REMARK   96  A    between atoms: _233  and  _235
REMARK   97  A    between atoms: _235  and  _236
REMARK   98  A    between atoms: _235  and  _238
REMARK   99  A    between atoms: _238  and  _239
REMARK  100  A    between atoms: _239  and  _240
REMARK  101  A    between atoms: _245  and  _247
REMARK  102  A    between atoms: _247  and  _248
REMARK  103  A    between atoms: _247  and  _250
REMARK  104  A    between atoms: _250  and  _251
REMARK  105  A    between atoms: _251  and  _252
REMARK  106  A    between atoms: _257  and  _259
REMARK  107  A    between atoms: _259  and  _260
REMARK  108  A    between atoms: _259  and  _262
REMARK  109  A    between atoms: _262  and  _263
REMARK  110  A    between atoms: _266  and  _268
REMARK  111  A    between atoms: _268  and  _269
REMARK  112  A    between atoms: _268  and  _271
REMARK  113  A    between atoms: _271  and  _272
REMARK  114  A    between atoms: _275  and  _277
REMARK  115  A    between atoms: _277  and  _278
REMARK  116  A    between atoms: _277  and  _280
REMARK  117  A    between atoms: _280  and  _281
REMARK  118  A    between atoms: _286  and  _288
REMARK  119  A    between atoms: _288  and  _289
REMARK  120  A    between atoms: _288  and  _291
REMARK  121  A    between atoms: _291  and  _292
REMARK  122  A    between atoms: _297  and  _299
REMARK  123  A    between atoms: _299  and  _300
REMARK  124  A    between atoms: _302  and  _304
REMARK  125  A    between atoms: _304  and  _305
REMARK  126  A    between atoms: _304  and  _307
REMARK  127  A    between atoms: _307  and  _308
REMARK  128  A    between atoms: _311  and  _313
REMARK  129  A    between atoms: _313  and  _314
REMARK  130  A    between atoms: _316  and  _318
REMARK  131  A    between atoms: _318  and  _319
REMARK  132  A    between atoms: _318  and  _321
REMARK  133  A    between atoms: _321  and  _322
REMARK  134  A    between atoms: _325  and  _327
REMARK  135  A    between atoms: _327  and  _328
REMARK  136  A    between atoms: _331  and  _333
REMARK  137  A    between atoms: _333  and  _334
REMARK  138  A    between atoms: _333  and  _336
REMARK  139  A    between atoms: _336  and  _337
REMARK  140  A    between atoms: _340  and  _342
REMARK  141  A    between atoms: _342  and  _343
REMARK  142  A    between atoms: _342  and  _345
REMARK  143  A    between atoms: _345  and  _346
REMARK  144  A    between atoms: _349  and  _351
REMARK  145  A    between atoms: _351  and  _352
REMARK  146  A    between atoms: _351  and  _354
REMARK  147  A    between atoms: _354  and  _355
REMARK  148  A    between atoms: _355  and  _356
REMARK  149  A    between atoms: _361  and  _363
REMARK  150  A    between atoms: _363  and  _364
REMARK  151  A    between atoms: _363  and  _366
REMARK  152  A    between atoms: _366  and  _367
REMARK  153  A    between atoms: _373  and  _375
REMARK  154  A    between atoms: _375  and  _376
REMARK  155  A    between atoms: _375  and  _378
REMARK  156  A    between atoms: _378  and  _379
REMARK  157  A    between atoms: _382  and  _384
REMARK  158  A    between atoms: _384  and  _385
REMARK  159  A    between atoms: _388  and  _390
REMARK  160  A    between atoms: _390  and  _391
REMARK  161  A    between atoms: _390  and  _393
REMARK  162  A    between atoms: _393  and  _394
REMARK  163  A    between atoms: _397  and  _399
REMARK  164  A    between atoms: _399  and  _400
REMARK  165  A    between atoms: _399  and  _402
REMARK  166  A    between atoms: _402  and  _403
REMARK  167  A    between atoms: _406  and  _408
REMARK  168  A    between atoms: _408  and  _409
REMARK  169  A    between atoms: _411  and  _413
REMARK  170  A    between atoms: _413  and  _414
REMARK  171  A    between atoms: _413  and  _416
REMARK  172  A    between atoms: _416  and  _417
REMARK  173  A    between atoms: _420  and  _422
REMARK  174  A    between atoms: _422  and  _423
REMARK  175  A    between atoms: _422  and  _425
REMARK  176  A    between atoms: _425  and  _426
REMARK  177  A    between atoms: _429  and  _431
REMARK  178  A    between atoms: _431  and  _432
REMARK  179  A    between atoms: _431  and  _434
REMARK  180  A    between atoms: _434  and  _435
REMARK  181  A    between atoms: _438  and  _440
REMARK  182  A    between atoms: _440  and  _441
REMARK  183  A    between atoms: _440  and  _443
REMARK  184  A    between atoms: _443  and  _444
REMARK  185  A    between atoms: _447  and  _449
REMARK  186  A    between atoms: _449  and  _450
REMARK  187  A    between atoms: _449  and  _452
REMARK  188  A    between atoms: _452  and  _453
REMARK  189  A    between atoms: _456  and  _458
REMARK  190  A    between atoms: _458  and  _459
REMARK  191  A    between atoms: _458  and  _461
REMARK  192  A    between atoms: _461  and  _462
REMARK  193  A    between atoms: _464  and  _466
REMARK  194  A    between atoms: _466  and  _467
REMARK  195  A    between atoms: _466  and  _469
REMARK  196  A    between atoms: _469  and  _470
REMARK  197  A    between atoms: _475  and  _477
REMARK  198  A    between atoms: _477  and  _478
REMARK  199  A    between atoms: _477  and  _480
REMARK  200  A    between atoms: _480  and  _481
REMARK  201  A    between atoms: _483  and  _485
REMARK  202  A    between atoms: _485  and  _486
REMARK  203  A    between atoms: _485  and  _488
REMARK  204  A    between atoms: _488  and  _489
REMARK  205  A    between atoms: _492  and  _494
REMARK  206  A    between atoms: _494  and  _495
REMARK  207  A    between atoms: _494  and  _497
REMARK  208  A    between atoms: _497  and  _498
REMARK  209  A    between atoms: _504  and  _506
REMARK  210  A    between atoms: _506  and  _507
REMARK  211  A    between atoms: _506  and  _509
REMARK  212  A    between atoms: _509  and  _510
REMARK  213  A    between atoms: _512  and  _514
REMARK  214  A    between atoms: _514  and  _515
REMARK  215  A    between atoms: _514  and  _517
REMARK  216  A    between atoms: _517  and  _518
REMARK  217  A    between atoms: _521  and  _523
REMARK  218  A    between atoms: _523  and  _524
REMARK  219  A    between atoms: _523  and  _526
REMARK  220  A    between atoms: _526  and  _527
REMARK  221  A    between atoms: _533  and  _535
REMARK  222  A    between atoms: _535  and  _536
REMARK  223  A    between atoms: _538  and  _540
REMARK  224  A    between atoms: _540  and  _541
REMARK  225  A    between atoms: _540  and  _543
REMARK  226  A    between atoms: _543  and  _544
REMARK  227  A    between atoms: _547  and  _549
REMARK  228  A    between atoms: _549  and  _550
REMARK  229  A    between atoms: _552  and  _554
REMARK  230  A    between atoms: _554  and  _555
REMARK  231  A    between atoms: _554  and  _557
REMARK  232  A    between atoms: _557  and  _558
REMARK  233  A    between atoms: _563  and  _564
REMARK  234  A    between atoms: _566  and  _568
REMARK  235  A    between atoms: _568  and  _569
REMARK  236  A    between atoms: _568  and  _571
REMARK  237  A    between atoms: _571  and  _572
REMARK  238  A    between atoms: _575  and  _577
REMARK  239  A    between atoms: _577  and  _578
REMARK  240  A    between atoms: _577  and  _580
REMARK  241  A    between atoms: _580  and  _581
REMARK  242  A    between atoms: _584  and  _586
REMARK  243  A    between atoms: _586  and  _587
REMARK  244  A    between atoms: _586  and  _589
REMARK  245  A    between atoms: _592  and  _594
REMARK  246  A    between atoms: _594  and  _595
REMARK  247  A    between atoms: _594  and  _597
REMARK  248  A    between atoms: _597  and  _598
REMARK  249  A    between atoms: _598  and  _599
REMARK  250  A    between atoms: _605  and  _606
REMARK  251  A    between atoms: _611  and  _613
REMARK  252  A    between atoms: _613  and  _614
REMARK  253  A    between atoms: _613  and  _616
REMARK  254  A    between atoms: _616  and  _617
REMARK  255  A    between atoms: _617  and  _618
REMARK                            x       y       z     vdW  Elec       q    Type
REMARK                         _______ _______ _______ _____ _____    ______ ____
ROOT
ATOM      1  O   HOH     1      23.872   9.186  30.364  0.00  0.00    +0.000 OA
ENDROOT
TORSDOF 0
