REMARK  Name = ../refined-set-2016/1lgt/1lgt_pocket.pdb
REMARK  171 active torsions:
REMARK  status: ('A' for Active; 'I' for Inactive)
REMARK    1  A    between atoms: _1  and  _3
REMARK    2  A    between atoms: _3  and  _4
REMARK    3  A    between atoms: _3  and  _6
REMARK    4  A    between atoms: _6  and  _7
REMARK    5  A    between atoms: _11  and  FE_414
REMARK    6  A    between atoms: _12  and  _14
REMARK    7  A    between atoms: _14  and  _15
REMARK    8  A    between atoms: _14  and  _17
REMARK    9  A    between atoms: _17  and  _18
REMARK   10  A    between atoms: _24  and  _26
REMARK   11  A    between atoms: _26  and  _27
REMARK   12  A    between atoms: _26  and  _29
REMARK   13  A    between atoms: _32  and  _34
REMARK   14  A    between atoms: _34  and  _35
REMARK   15  A    between atoms: _34  and  _37
REMARK   16  A    between atoms: _37  and  _38
REMARK   17  A    between atoms: _38  and  _39
REMARK   18  A    between atoms: _39  and  _40
REMARK   19  A    between atoms: _49  and  _51
REMARK   20  A    between atoms: _51  and  _52
REMARK   21  A    between atoms: _51  and  _54
REMARK   22  A    between atoms: _54  and  _55
REMARK   23  A    between atoms: _58  and  _60
REMARK   24  A    between atoms: _60  and  _61
REMARK   25  A    between atoms: _60  and  _63
REMARK   26  A    between atoms: _63  and  _64
REMARK   27  A    between atoms: _67  and  _69
REMARK   28  A    between atoms: _69  and  _70
REMARK   29  A    between atoms: _69  and  _72
REMARK   30  A    between atoms: _72  and  _73
REMARK   31  A    between atoms: _73  and  _74
REMARK   32  A    between atoms: _76  and  _78
REMARK   33  A    between atoms: _78  and  _79
REMARK   34  A    between atoms: _78  and  _81
REMARK   35  A    between atoms: _81  and  _82
REMARK   36  A    between atoms: _82  and  _83
REMARK   37  A    between atoms: _85  and  _87
REMARK   38  A    between atoms: _87  and  _88
REMARK   39  A    between atoms: _91  and  _93
REMARK   40  A    between atoms: _93  and  _94
REMARK   41  A    between atoms: _93  and  _96
REMARK   42  A    between atoms: _96  and  _97
REMARK   43  A    between atoms: _102  and  _103
REMARK   44  A    between atoms: _105  and  _107
REMARK   45  A    between atoms: _107  and  _108
REMARK   46  A    between atoms: _107  and  _110
REMARK   47  A    between atoms: _110  and  _111
REMARK   48  A    between atoms: _117  and  _119
REMARK   49  A    between atoms: _119  and  _120
REMARK   50  A    between atoms: _119  and  _122
REMARK   51  A    between atoms: _122  and  _123
REMARK   52  A    between atoms: _128  and  _130
REMARK   53  A    between atoms: _130  and  _131
REMARK   54  A    between atoms: _130  and  _133
REMARK   55  A    between atoms: _133  and  _134
REMARK   56  A    between atoms: _139  and  _141
REMARK   57  A    between atoms: _141  and  _142
REMARK   58  A    between atoms: _141  and  _144
REMARK   59  A    between atoms: _144  and  _145
REMARK   60  A    between atoms: _148  and  _150
REMARK   61  A    between atoms: _150  and  _151
REMARK   62  A    between atoms: _154  and  _156
REMARK   63  A    between atoms: _156  and  _157
REMARK   64  A    between atoms: _156  and  _159
REMARK   65  A    between atoms: _159  and  _160
REMARK   66  A    between atoms: _163  and  _165
REMARK   67  A    between atoms: _165  and  _166
REMARK   68  A    between atoms: _169  and  _171
REMARK   69  A    between atoms: _171  and  _172
REMARK   70  A    between atoms: _171  and  _174
REMARK   71  A    between atoms: _174  and  _175
REMARK   72  A    between atoms: _181  and  _183
REMARK   73  A    between atoms: _183  and  _184
REMARK   74  A    between atoms: _183  and  _186
REMARK   75  A    between atoms: _186  and  _187
REMARK   76  A    between atoms: _190  and  _192
REMARK   77  A    between atoms: _192  and  _193
REMARK   78  A    between atoms: _192  and  _195
REMARK   79  A    between atoms: _195  and  _196
REMARK   80  A    between atoms: _201  and  _203
REMARK   81  A    between atoms: _203  and  _204
REMARK   82  A    between atoms: _203  and  _206
REMARK   83  A    between atoms: _206  and  _207
REMARK   84  A    between atoms: _211  and  FE_414
REMARK   85  A    between atoms: _212  and  _214
REMARK   86  A    between atoms: _214  and  _215
REMARK   87  A    between atoms: _214  and  _217
REMARK   88  A    between atoms: _217  and  _218
REMARK   89  A    between atoms: _224  and  _226
REMARK   90  A    between atoms: _226  and  _227
REMARK   91  A    between atoms: _226  and  _229
REMARK   92  A    between atoms: _229  and  _230
REMARK   93  A    between atoms: _230  and  _231
REMARK   94  A    between atoms: _233  and  _235
REMARK   95  A    between atoms: _235  and  _236
REMARK   96  A    between atoms: _235  and  _238
REMARK   97  A    between atoms: _238  and  _239
REMARK   98  A    between atoms: _241  and  _243
REMARK   99  A    between atoms: _243  and  _244
REMARK  100  A    between atoms: _243  and  _246
REMARK  101  A    between atoms: _246  and  _247
REMARK  102  A    between atoms: _247  and  _248
REMARK  103  A    between atoms: _248  and  _249
REMARK  104  A    between atoms: _258  and  _260
REMARK  105  A    between atoms: _260  and  _261
REMARK  106  A    between atoms: _260  and  _263
REMARK  107  A    between atoms: _263  and  _264
REMARK  108  A    between atoms: _269  and  _271
REMARK  109  A    between atoms: _271  and  _272
REMARK  110  A    between atoms: _271  and  _274
REMARK  111  A    between atoms: _274  and  _275
REMARK  112  A    between atoms: _278  and  _280
REMARK  113  A    between atoms: _280  and  _281
REMARK  114  A    between atoms: _280  and  _283
REMARK  115  A    between atoms: _283  and  _284
REMARK  116  A    between atoms: _289  and  _291
REMARK  117  A    between atoms: _291  and  _292
REMARK  118  A    between atoms: _291  and  _294
REMARK  119  A    between atoms: _294  and  _295
REMARK  120  A    between atoms: _298  and  _300
REMARK  121  A    between atoms: _300  and  _301
REMARK  122  A    between atoms: _300  and  _303
REMARK  123  A    between atoms: _303  and  _304
REMARK  124  A    between atoms: _309  and  _311
REMARK  125  A    between atoms: _311  and  _312
REMARK  126  A    between atoms: _311  and  _314
REMARK  127  A    between atoms: _314  and  _315
REMARK  128  A    between atoms: _315  and  _316
REMARK  129  A    between atoms: _318  and  _320
REMARK  130  A    between atoms: _320  and  _321
REMARK  131  A    between atoms: _320  and  _323
REMARK  132  A    between atoms: _323  and  _324
REMARK  133  A    between atoms: _326  and  _328
REMARK  134  A    between atoms: _328  and  _329
REMARK  135  A    between atoms: _328  and  _331
REMARK  136  A    between atoms: _331  and  _332
REMARK  137  A    between atoms: _337  and  _338
REMARK  138  A    between atoms: _340  and  _342
REMARK  139  A    between atoms: _342  and  _343
REMARK  140  A    between atoms: _342  and  _345
REMARK  141  A    between atoms: _345  and  _346
REMARK  142  A    between atoms: _346  and  _347
REMARK  143  A    between atoms: _350  and  _352
REMARK  144  A    between atoms: _352  and  _353
REMARK  145  A    between atoms: _352  and  _355
REMARK  146  A    between atoms: _355  and  _356
REMARK  147  A    between atoms: _356  and  _357
REMARK  148  A    between atoms: _357  and  _358
REMARK  149  A    between atoms: _358  and  FE_414
REMARK  150  A    between atoms: _360  and  _362
REMARK  151  A    between atoms: _362  and  _363
REMARK  152  A    between atoms: _362  and  _365
REMARK  153  A    between atoms: _365  and  _366
REMARK  154  A    between atoms: _371  and  _373
REMARK  155  A    between atoms: _373  and  _374
REMARK  156  A    between atoms: _373  and  _376
REMARK  157  A    between atoms: _376  and  _377
REMARK  158  A    between atoms: _380  and  _381
REMARK  159  A    between atoms: _386  and  _388
REMARK  160  A    between atoms: _388  and  _389
REMARK  161  A    between atoms: _388  and  _391
REMARK  162  A    between atoms: _391  and  _392
REMARK  163  A    between atoms: _394  and  _396
REMARK  164  A    between atoms: _396  and  _397
REMARK  165  A    between atoms: _396  and  _399
REMARK  166  A    between atoms: _399  and  _400
REMARK  167  A    between atoms: _400  and  _401
REMARK  168  A    between atoms: _403  and  _405
REMARK  169  A    between atoms: _405  and  _406
REMARK  170  A    between atoms: _405  and  _408
REMARK  171  A    between atoms: _408  and  _409
REMARK                            x       y       z     vdW  Elec       q    Type
REMARK                         _______ _______ _______ _____ _____    ______ ____
ROOT
ATOM      1 FE   UNK A   1      18.546  23.449  16.093  0.00  0.00    +0.000 Fe
ENDROOT
BRANCH   1   2
ATOM      2  N   UNK A   2      18.835  25.658  16.538  0.00  0.00    +0.000 N 
ATOM      3  C   UNK A   2      19.999  25.922  17.107  0.00  0.00    +0.000 A 
ATOM      4  N   UNK A   2      20.140  27.235  17.176  0.00  0.00    +0.000 NA
ATOM      5  C   UNK A   2      19.034  27.847  16.627  0.00  0.00    +0.000 A 
ATOM      6  C   UNK A   2      18.210  26.845  16.231  0.00  0.00    +0.000 A 
BRANCH   5   7
ATOM      7  C   UNK A   2      18.909  29.342  16.500  0.00  0.00    +0.000 C 
BRANCH   7   8
ATOM      8  C   UNK A   2      18.318  30.041  17.741  0.00  0.00    +0.000 C 
BRANCH   8   9
ATOM      9  C   UNK A   2      17.025  29.333  18.092  0.00  0.00    +0.000 C 
ATOM     10  O   UNK A   2      16.944  28.643  19.108  0.00  0.00    +0.000 OA
ATOM     11  N   PHE A   3      16.006  29.562  17.267  0.00  0.00    +0.000 N 
ATOM     12  H   PHE A   3      16.112  30.272  16.514  0.00  0.00    +0.000 HD
BRANCH  11  13
ATOM     13  CA  PHE A   3      14.747  28.844  17.392  0.00  0.00    +0.000 C 
BRANCH  13  14
ATOM     14  C   PHE A   3      14.655  28.160  16.031  0.00  0.00    +0.000 C 
ATOM     15  N   MET A   4      13.894  27.077  15.944  0.00  0.00    +0.000 N 
ATOM     16  H   MET A   4      13.359  26.757  16.777  0.00  0.00    +0.000 HD
ATOM     17  O   PHE A   3      15.289  28.601  15.067  0.00  0.00    +0.000 OA
BRANCH  15  18
ATOM     18  CA  MET A   4      13.798  26.331  14.699  0.00  0.00    +0.000 C 
BRANCH  18  19
ATOM     19  C   MET A   4      12.361  26.081  14.275  0.00  0.00    +0.000 C 
ATOM     20  O   MET A   4      11.501  25.820  15.113  0.00  0.00    +0.000 OA
ENDBRANCH  18  19
BRANCH  18  21
ATOM     21  CB  MET A   4      14.525  24.985  14.872  0.00  0.00    +0.000 C 
BRANCH  21  22
ATOM     22  CG  MET A   4      14.588  24.080  13.640  0.00  0.00    +0.000 C 
BRANCH  22  23
ATOM     23  SD  MET A   4      13.107  23.075  13.301  0.00  0.00    +0.000 S 
ATOM     24  CE  MET A   4      12.684  22.515  14.879  0.00  0.00    +0.000 C 
ENDBRANCH  22  23
ENDBRANCH  21  22
ENDBRANCH  18  21
ENDBRANCH  15  18
ENDBRANCH  13  14
BRANCH  13  25
ATOM     25  CB  PHE A   3      13.531  29.758  17.668  0.00  0.00    +0.000 C 
BRANCH  25  26
ATOM     26  CG  PHE A   3      13.222  30.752  16.584  0.00  0.00    +0.000 A 
ATOM     27  CD2 PHE A   3      13.891  31.972  16.527  0.00  0.00    +0.000 A 
ATOM     28  CE2 PHE A   3      13.548  32.930  15.570  0.00  0.00    +0.000 A 
ATOM     29  CZ  PHE A   3      12.527  32.667  14.657  0.00  0.00    +0.000 A 
ATOM     30  CE1 PHE A   3      11.858  31.449  14.702  0.00  0.00    +0.000 A 
ATOM     31  CD1 PHE A   3      12.209  30.500  15.663  0.00  0.00    +0.000 A 
ENDBRANCH  25  26
ENDBRANCH  13  25
ENDBRANCH  11  13
ENDBRANCH   8   9
BRANCH   8  32
ATOM     32  N   UNK A   2      19.259  30.036  18.853  0.00  0.00    +0.000 N 
ATOM     33  H   UNK A   2      19.120  29.369  19.639  0.00  0.00    +0.000 HD
ATOM     34  C   UNK A   1      20.294  30.873  18.877  0.00  0.00    +0.000 C 
ATOM     35  O   UNK A   1      20.525  31.674  17.972  0.00  0.00    +0.000 OA
BRANCH  34  36
ATOM     36  C   UNK A   1      21.192  30.788  20.105  0.00  0.00    +0.000 C 
BRANCH  36  37
ATOM     37  N   UNK A   1      20.319  30.678  21.263  0.00  0.00    +0.000 NA
ATOM     38  H   UNK A   1      20.105  29.739  21.654  0.00  0.00    +0.000 HD
ENDBRANCH  36  37
BRANCH  36  39
ATOM     39  C   UNK A   1      22.113  29.570  20.007  0.00  0.00    +0.000 C 
BRANCH  39  40
ATOM     40  C   UNK A   1      22.831  29.463  18.698  0.00  0.00    +0.000 A 
ATOM     41  C   UNK A   1      23.989  30.018  18.268  0.00  0.00    +0.000 A 
ATOM     42  N   UNK A   1      24.161  29.637  16.960  0.00  0.00    +0.000 NA
ATOM     43  C   UNK A   1      23.145  28.873  16.599  0.00  0.00    +0.000 A 
ATOM     44  N   UNK A   1      22.329  28.752  17.630  0.00  0.00    +0.000 NA
ENDBRANCH  39  40
ENDBRANCH  36  39
ENDBRANCH  34  36
ENDBRANCH   8  32
ENDBRANCH   7   8
ENDBRANCH   5   7
ENDBRANCH   1   2
BRANCH   1  47
ATOM     45  C   UNK A   1      14.611  22.802  18.127  0.00  0.00    +0.000 A 
ATOM     46  C   UNK A   1      15.761  23.517  18.063  0.00  0.00    +0.000 A 
ATOM     47  N   UNK A   1      16.417  23.135  16.916  0.00  0.00    +0.000 N 
ATOM     48  C   UNK A   1      15.696  22.218  16.296  0.00  0.00    +0.000 A 
ATOM     49  N   UNK A   1      14.602  22.000  17.005  0.00  0.00    +0.000 NA
BRANCH  45  50
ATOM     50  C   UNK A   1      13.524  22.760  19.166  0.00  0.00    +0.000 C 
BRANCH  50  51
ATOM     51  C   UNK A   1      12.579  23.986  19.171  0.00  0.00    +0.000 C 
BRANCH  51  52
ATOM     52  C   UNK A   1      13.416  25.251  19.275  0.00  0.00    +0.000 C 
ATOM     53  N   UNK A   2      14.064  25.424  20.422  0.00  0.00    +0.000 N 
ATOM     54  H   UNK A   2      13.906  24.758  21.205  0.00  0.00    +0.000 HD
ATOM     55  O   UNK A   1      13.421  26.080  18.364  0.00  0.00    +0.000 OA
BRANCH  53  56
ATOM     56  C   UNK A   2      14.992  26.532  20.600  0.00  0.00    +0.000 C 
BRANCH  56  57
ATOM     57  C   UNK A   2      16.112  26.058  21.504  0.00  0.00    +0.000 C 
ATOM     58  O   UNK A   2      15.950  25.111  22.281  0.00  0.00    +0.000 OA
ATOM     59  N   PHE A   3      17.270  26.686  21.357  0.00  0.00    +0.000 N 
ATOM     60  H   PHE A   3      17.345  27.461  20.667  0.00  0.00    +0.000 HD
BRANCH  59  61
ATOM     61  CA  PHE A   3      18.435  26.315  22.138  0.00  0.00    +0.000 C 
BRANCH  61  62
ATOM     62  C   PHE A   3      18.704  27.364  23.205  0.00  0.00    +0.000 C 
ATOM     63  N   MET A   4      18.538  26.950  24.453  0.00  0.00    +0.000 N 
ATOM     64  H   MET A   4      18.252  25.964  24.617  0.00  0.00    +0.000 HD
ATOM     65  O   PHE A   3      19.040  28.510  22.906  0.00  0.00    +0.000 OA
BRANCH  63  66
ATOM     66  CA  MET A   4      18.739  27.816  25.599  0.00  0.00    +0.000 C 
BRANCH  66  67
ATOM     67  C   MET A   4      20.222  27.915  25.948  0.00  0.00    +0.000 C 
ATOM     68  O   MET A   4      20.888  26.902  26.154  0.00  0.00    +0.000 OA
ENDBRANCH  66  67
BRANCH  66  69
ATOM     69  CB  MET A   4      17.967  27.255  26.791  0.00  0.00    +0.000 C 
BRANCH  69  70
ATOM     70  CG  MET A   4      18.009  28.102  28.046  0.00  0.00    +0.000 C 
BRANCH  70  71
ATOM     71  CD  MET A   4      17.037  29.274  27.983  0.00  0.00    +0.000 C 
BRANCH  71  72
ATOM     72  NE  MET A   4      16.984  29.953  29.275  0.00  0.00    +0.330 N 
ATOM     73  HE  MET A   4      16.362  29.553  30.006  0.00  0.00    +0.000 HD
ATOM     74  CZ  MET A   4      17.675  31.047  29.582  0.00  0.00    +0.000 C 
ATOM     75  NH2 MET A   4      17.590  31.563  30.802  0.00  0.00    +0.330 N 
ATOM     76 HH21 MET A   4      16.984  31.112  31.516  0.00  0.00    +0.000 HD
ATOM     77 HH22 MET A   4      18.130  32.418  31.044  0.00  0.00    +0.000 HD
ATOM     78  NH1 MET A   4      18.471  31.609  28.685  0.00  0.00    +0.330 N 
ATOM     79 HH11 MET A   4      19.009  32.464  28.931  0.00  0.00    +0.000 HD
ATOM     80 HH12 MET A   4      18.558  31.195  27.735  0.00  0.00    +0.000 HD
ENDBRANCH  71  72
ENDBRANCH  70  71
ENDBRANCH  69  70
ENDBRANCH  66  69
ENDBRANCH  63  66
ENDBRANCH  61  62
BRANCH  61  81
ATOM     81  CB  PHE A   3      19.662  26.161  21.229  0.00  0.00    +0.000 C 
ATOM     82  CG2 PHE A   3      20.858  25.683  22.035  0.00  0.00    +0.000 C 
ATOM     83  CG1 PHE A   3      19.341  25.186  20.112  0.00  0.00    +0.000 C 
ENDBRANCH  61  81
ENDBRANCH  59  61
ENDBRANCH  56  57
BRANCH  56  84
ATOM     84  C   UNK A   2      14.315  27.829  21.112  0.00  0.00    +0.000 C 
BRANCH  84  85
ATOM     85  C   UNK A   2      13.748  27.765  22.507  0.00  0.00    +0.000 A 
ATOM     86  C   UNK A   2      14.578  27.718  23.624  0.00  0.00    +0.000 A 
ATOM     87  C   UNK A   2      14.049  27.775  24.913  0.00  0.00    +0.000 A 
ATOM     88  C   UNK A   2      12.670  27.875  25.094  0.00  0.00    +0.000 A 
ATOM     89  C   UNK A   2      11.831  27.915  23.989  0.00  0.00    +0.000 A 
ATOM     90  C   UNK A   2      12.371  27.859  22.703  0.00  0.00    +0.000 A 
ENDBRANCH  84  85
ENDBRANCH  56  84
ENDBRANCH  53  56
ENDBRANCH  51  52
BRANCH  51  91
ATOM     91  N   UNK A   1      11.699  23.988  18.002  0.00  0.00    +0.000 NA
ATOM     92  H   UNK A   1      11.990  24.477  17.131  0.00  0.00    +0.000 HD
ENDBRANCH  51  91
ENDBRANCH  50  51
ENDBRANCH  45  50
ENDBRANCH   1  47
BRANCH   1  93
ATOM     93  O   UNK A   1      18.069  23.901  14.147  0.00  0.00    +0.000 OA
BRANCH  93  94
ATOM     94  C   UNK A   1      18.293  23.812  12.921  0.00  0.00    +0.000 C 
ATOM     95  O   UNK A   1      18.895  22.846  12.408  0.00  0.00    +0.000 OA
BRANCH  94  96
ATOM     96  C   UNK A   1      17.803  24.911  12.004  0.00  0.00    +0.000 C 
BRANCH  96  97
ATOM     97  C   UNK A   1      17.478  26.195  12.747  0.00  0.00    +0.000 C 
BRANCH  97  98
ATOM     98  C   UNK A   1      17.057  27.327  11.815  0.00  0.00    +0.000 C 
BRANCH  98  99
ATOM     99  N   UNK A   1      16.705  28.514  12.578  0.00  0.00    +0.000 NA
ATOM    100  H   UNK A   1      16.060  28.423  13.389  0.00  0.00    +0.000 HD
ENDBRANCH  98  99
BRANCH  98 101
ATOM    101  C   UNK A   1      15.777  26.968  11.071  0.00  0.00    +0.000 C 
ATOM    102  O   UNK A   1      14.691  27.029  11.644  0.00  0.00    +0.000 OA
ENDBRANCH  98 101
ENDBRANCH  97  98
ENDBRANCH  96  97
ENDBRANCH  94  96
ENDBRANCH  93  94
ENDBRANCH   1  93
TORSDOF 43
REMARK  Name = ../refined-set-2016/1lgt/1lgt_pocket.pdb
REMARK  171 active torsions:
REMARK  status: ('A' for Active; 'I' for Inactive)
REMARK    1  A    between atoms: _1  and  _3
REMARK    2  A    between atoms: _3  and  _4
REMARK    3  A    between atoms: _3  and  _6
REMARK    4  A    between atoms: _6  and  _7
REMARK    5  A    between atoms: _11  and  FE_414
REMARK    6  A    between atoms: _12  and  _14
REMARK    7  A    between atoms: _14  and  _15
REMARK    8  A    between atoms: _14  and  _17
REMARK    9  A    between atoms: _17  and  _18
REMARK   10  A    between atoms: _24  and  _26
REMARK   11  A    between atoms: _26  and  _27
REMARK   12  A    between atoms: _26  and  _29
REMARK   13  A    between atoms: _32  and  _34
REMARK   14  A    between atoms: _34  and  _35
REMARK   15  A    between atoms: _34  and  _37
REMARK   16  A    between atoms: _37  and  _38
REMARK   17  A    between atoms: _38  and  _39
REMARK   18  A    between atoms: _39  and  _40
REMARK   19  A    between atoms: _49  and  _51
REMARK   20  A    between atoms: _51  and  _52
REMARK   21  A    between atoms: _51  and  _54
REMARK   22  A    between atoms: _54  and  _55
REMARK   23  A    between atoms: _58  and  _60
REMARK   24  A    between atoms: _60  and  _61
REMARK   25  A    between atoms: _60  and  _63
REMARK   26  A    between atoms: _63  and  _64
REMARK   27  A    between atoms: _67  and  _69
REMARK   28  A    between atoms: _69  and  _70
REMARK   29  A    between atoms: _69  and  _72
REMARK   30  A    between atoms: _72  and  _73
REMARK   31  A    between atoms: _73  and  _74
REMARK   32  A    between atoms: _76  and  _78
REMARK   33  A    between atoms: _78  and  _79
REMARK   34  A    between atoms: _78  and  _81
REMARK   35  A    between atoms: _81  and  _82
REMARK   36  A    between atoms: _82  and  _83
REMARK   37  A    between atoms: _85  and  _87
REMARK   38  A    between atoms: _87  and  _88
REMARK   39  A    between atoms: _91  and  _93
REMARK   40  A    between atoms: _93  and  _94
REMARK   41  A    between atoms: _93  and  _96
REMARK   42  A    between atoms: _96  and  _97
REMARK   43  A    between atoms: _102  and  _103
REMARK   44  A    between atoms: _105  and  _107
REMARK   45  A    between atoms: _107  and  _108
REMARK   46  A    between atoms: _107  and  _110
REMARK   47  A    between atoms: _110  and  _111
REMARK   48  A    between atoms: _117  and  _119
REMARK   49  A    between atoms: _119  and  _120
REMARK   50  A    between atoms: _119  and  _122
REMARK   51  A    between atoms: _122  and  _123
REMARK   52  A    between atoms: _128  and  _130
REMARK   53  A    between atoms: _130  and  _131
REMARK   54  A    between atoms: _130  and  _133
REMARK   55  A    between atoms: _133  and  _134
REMARK   56  A    between atoms: _139  and  _141
REMARK   57  A    between atoms: _141  and  _142
REMARK   58  A    between atoms: _141  and  _144
REMARK   59  A    between atoms: _144  and  _145
REMARK   60  A    between atoms: _148  and  _150
REMARK   61  A    between atoms: _150  and  _151
REMARK   62  A    between atoms: _154  and  _156
REMARK   63  A    between atoms: _156  and  _157
REMARK   64  A    between atoms: _156  and  _159
REMARK   65  A    between atoms: _159  and  _160
REMARK   66  A    between atoms: _163  and  _165
REMARK   67  A    between atoms: _165  and  _166
REMARK   68  A    between atoms: _169  and  _171
REMARK   69  A    between atoms: _171  and  _172
REMARK   70  A    between atoms: _171  and  _174
REMARK   71  A    between atoms: _174  and  _175
REMARK   72  A    between atoms: _181  and  _183
REMARK   73  A    between atoms: _183  and  _184
REMARK   74  A    between atoms: _183  and  _186
REMARK   75  A    between atoms: _186  and  _187
REMARK   76  A    between atoms: _190  and  _192
REMARK   77  A    between atoms: _192  and  _193
REMARK   78  A    between atoms: _192  and  _195
REMARK   79  A    between atoms: _195  and  _196
REMARK   80  A    between atoms: _201  and  _203
REMARK   81  A    between atoms: _203  and  _204
REMARK   82  A    between atoms: _203  and  _206
REMARK   83  A    between atoms: _206  and  _207
REMARK   84  A    between atoms: _211  and  FE_414
REMARK   85  A    between atoms: _212  and  _214
REMARK   86  A    between atoms: _214  and  _215
REMARK   87  A    between atoms: _214  and  _217
REMARK   88  A    between atoms: _217  and  _218
REMARK   89  A    between atoms: _224  and  _226
REMARK   90  A    between atoms: _226  and  _227
REMARK   91  A    between atoms: _226  and  _229
REMARK   92  A    between atoms: _229  and  _230
REMARK   93  A    between atoms: _230  and  _231
REMARK   94  A    between atoms: _233  and  _235
REMARK   95  A    between atoms: _235  and  _236
REMARK   96  A    between atoms: _235  and  _238
REMARK   97  A    between atoms: _238  and  _239
REMARK   98  A    between atoms: _241  and  _243
REMARK   99  A    between atoms: _243  and  _244
REMARK  100  A    between atoms: _243  and  _246
REMARK  101  A    between atoms: _246  and  _247
REMARK  102  A    between atoms: _247  and  _248
REMARK  103  A    between atoms: _248  and  _249
REMARK  104  A    between atoms: _258  and  _260
REMARK  105  A    between atoms: _260  and  _261
REMARK  106  A    between atoms: _260  and  _263
REMARK  107  A    between atoms: _263  and  _264
REMARK  108  A    between atoms: _269  and  _271
REMARK  109  A    between atoms: _271  and  _272
REMARK  110  A    between atoms: _271  and  _274
REMARK  111  A    between atoms: _274  and  _275
REMARK  112  A    between atoms: _278  and  _280
REMARK  113  A    between atoms: _280  and  _281
REMARK  114  A    between atoms: _280  and  _283
REMARK  115  A    between atoms: _283  and  _284
REMARK  116  A    between atoms: _289  and  _291
REMARK  117  A    between atoms: _291  and  _292
REMARK  118  A    between atoms: _291  and  _294
REMARK  119  A    between atoms: _294  and  _295
REMARK  120  A    between atoms: _298  and  _300
REMARK  121  A    between atoms: _300  and  _301
REMARK  122  A    between atoms: _300  and  _303
REMARK  123  A    between atoms: _303  and  _304
REMARK  124  A    between atoms: _309  and  _311
REMARK  125  A    between atoms: _311  and  _312
REMARK  126  A    between atoms: _311  and  _314
REMARK  127  A    between atoms: _314  and  _315
REMARK  128  A    between atoms: _315  and  _316
REMARK  129  A    between atoms: _318  and  _320
REMARK  130  A    between atoms: _320  and  _321
REMARK  131  A    between atoms: _320  and  _323
REMARK  132  A    between atoms: _323  and  _324
REMARK  133  A    between atoms: _326  and  _328
REMARK  134  A    between atoms: _328  and  _329
REMARK  135  A    between atoms: _328  and  _331
REMARK  136  A    between atoms: _331  and  _332
REMARK  137  A    between atoms: _337  and  _338
REMARK  138  A    between atoms: _340  and  _342
REMARK  139  A    between atoms: _342  and  _343
REMARK  140  A    between atoms: _342  and  _345
REMARK  141  A    between atoms: _345  and  _346
REMARK  142  A    between atoms: _346  and  _347
REMARK  143  A    between atoms: _350  and  _352
REMARK  144  A    between atoms: _352  and  _353
REMARK  145  A    between atoms: _352  and  _355
REMARK  146  A    between atoms: _355  and  _356
REMARK  147  A    between atoms: _356  and  _357
REMARK  148  A    between atoms: _357  and  _358
REMARK  149  A    between atoms: _358  and  FE_414
REMARK  150  A    between atoms: _360  and  _362
REMARK  151  A    between atoms: _362  and  _363
REMARK  152  A    between atoms: _362  and  _365
REMARK  153  A    between atoms: _365  and  _366
REMARK  154  A    between atoms: _371  and  _373
REMARK  155  A    between atoms: _373  and  _374
REMARK  156  A    between atoms: _373  and  _376
REMARK  157  A    between atoms: _376  and  _377
REMARK  158  A    between atoms: _380  and  _381
REMARK  159  A    between atoms: _386  and  _388
REMARK  160  A    between atoms: _388  and  _389
REMARK  161  A    between atoms: _388  and  _391
REMARK  162  A    between atoms: _391  and  _392
REMARK  163  A    between atoms: _394  and  _396
REMARK  164  A    between atoms: _396  and  _397
REMARK  165  A    between atoms: _396  and  _399
REMARK  166  A    between atoms: _399  and  _400
REMARK  167  A    between atoms: _400  and  _401
REMARK  168  A    between atoms: _403  and  _405
REMARK  169  A    between atoms: _405  and  _406
REMARK  170  A    between atoms: _405  and  _408
REMARK  171  A    between atoms: _408  and  _409
REMARK                            x       y       z     vdW  Elec       q    Type
REMARK                         _______ _______ _______ _____ _____    ______ ____
ROOT
ATOM      1  CA  ASP A   1      21.315  12.761  23.164  0.00  0.00    +0.144 C 
ENDROOT
BRANCH   1   2
ATOM      2  N   ASP A   1      19.896  13.025  23.340  0.00  0.00    -0.239 NA
ATOM      3  H   ASP A   1      19.567  14.006  23.449  0.00  0.00    +0.142 HD
ENDBRANCH   1   2
BRANCH   1   4
ATOM      4  C   ASP A   1      22.168  13.969  23.511  0.00  0.00    +0.225 C 
ATOM      5  O   ASP A   1      21.655  15.042  23.841  0.00  0.00    -0.287 OA
ENDBRANCH   1   4
BRANCH   1   6
ATOM      6  CB  ASP A   1      21.615  12.293  21.732  0.00  0.00    +0.139 C 
BRANCH   6   7
ATOM      7  CG  ASP A   1      20.860  13.079  20.684  0.00  0.00    +0.367 C 
ATOM      8  OD2 ASP A   1      20.954  14.323  20.679  0.00  0.00    -0.246 OA
ATOM      9  OD1 ASP A   1      20.173  12.444  19.854  0.00  0.00    -0.246 OA
ENDBRANCH   6   7
ENDBRANCH   1   6
TORSDOF 4
REMARK  Name = ../refined-set-2016/1lgt/1lgt_pocket.pdb
REMARK  171 active torsions:
REMARK  status: ('A' for Active; 'I' for Inactive)
REMARK    1  A    between atoms: _1  and  _3
REMARK    2  A    between atoms: _3  and  _4
REMARK    3  A    between atoms: _3  and  _6
REMARK    4  A    between atoms: _6  and  _7
REMARK    5  A    between atoms: _11  and  FE_414
REMARK    6  A    between atoms: _12  and  _14
REMARK    7  A    between atoms: _14  and  _15
REMARK    8  A    between atoms: _14  and  _17
REMARK    9  A    between atoms: _17  and  _18
REMARK   10  A    between atoms: _24  and  _26
REMARK   11  A    between atoms: _26  and  _27
REMARK   12  A    between atoms: _26  and  _29
REMARK   13  A    between atoms: _32  and  _34
REMARK   14  A    between atoms: _34  and  _35
REMARK   15  A    between atoms: _34  and  _37
REMARK   16  A    between atoms: _37  and  _38
REMARK   17  A    between atoms: _38  and  _39
REMARK   18  A    between atoms: _39  and  _40
REMARK   19  A    between atoms: _49  and  _51
REMARK   20  A    between atoms: _51  and  _52
REMARK   21  A    between atoms: _51  and  _54
REMARK   22  A    between atoms: _54  and  _55
REMARK   23  A    between atoms: _58  and  _60
REMARK   24  A    between atoms: _60  and  _61
REMARK   25  A    between atoms: _60  and  _63
REMARK   26  A    between atoms: _63  and  _64
REMARK   27  A    between atoms: _67  and  _69
REMARK   28  A    between atoms: _69  and  _70
REMARK   29  A    between atoms: _69  and  _72
REMARK   30  A    between atoms: _72  and  _73
REMARK   31  A    between atoms: _73  and  _74
REMARK   32  A    between atoms: _76  and  _78
REMARK   33  A    between atoms: _78  and  _79
REMARK   34  A    between atoms: _78  and  _81
REMARK   35  A    between atoms: _81  and  _82
REMARK   36  A    between atoms: _82  and  _83
REMARK   37  A    between atoms: _85  and  _87
REMARK   38  A    between atoms: _87  and  _88
REMARK   39  A    between atoms: _91  and  _93
REMARK   40  A    between atoms: _93  and  _94
REMARK   41  A    between atoms: _93  and  _96
REMARK   42  A    between atoms: _96  and  _97
REMARK   43  A    between atoms: _102  and  _103
REMARK   44  A    between atoms: _105  and  _107
REMARK   45  A    between atoms: _107  and  _108
REMARK   46  A    between atoms: _107  and  _110
REMARK   47  A    between atoms: _110  and  _111
REMARK   48  A    between atoms: _117  and  _119
REMARK   49  A    between atoms: _119  and  _120
REMARK   50  A    between atoms: _119  and  _122
REMARK   51  A    between atoms: _122  and  _123
REMARK   52  A    between atoms: _128  and  _130
REMARK   53  A    between atoms: _130  and  _131
REMARK   54  A    between atoms: _130  and  _133
REMARK   55  A    between atoms: _133  and  _134
REMARK   56  A    between atoms: _139  and  _141
REMARK   57  A    between atoms: _141  and  _142
REMARK   58  A    between atoms: _141  and  _144
REMARK   59  A    between atoms: _144  and  _145
REMARK   60  A    between atoms: _148  and  _150
REMARK   61  A    between atoms: _150  and  _151
REMARK   62  A    between atoms: _154  and  _156
REMARK   63  A    between atoms: _156  and  _157
REMARK   64  A    between atoms: _156  and  _159
REMARK   65  A    between atoms: _159  and  _160
REMARK   66  A    between atoms: _163  and  _165
REMARK   67  A    between atoms: _165  and  _166
REMARK   68  A    between atoms: _169  and  _171
REMARK   69  A    between atoms: _171  and  _172
REMARK   70  A    between atoms: _171  and  _174
REMARK   71  A    between atoms: _174  and  _175
REMARK   72  A    between atoms: _181  and  _183
REMARK   73  A    between atoms: _183  and  _184
REMARK   74  A    between atoms: _183  and  _186
REMARK   75  A    between atoms: _186  and  _187
REMARK   76  A    between atoms: _190  and  _192
REMARK   77  A    between atoms: _192  and  _193
REMARK   78  A    between atoms: _192  and  _195
REMARK   79  A    between atoms: _195  and  _196
REMARK   80  A    between atoms: _201  and  _203
REMARK   81  A    between atoms: _203  and  _204
REMARK   82  A    between atoms: _203  and  _206
REMARK   83  A    between atoms: _206  and  _207
REMARK   84  A    between atoms: _211  and  FE_414
REMARK   85  A    between atoms: _212  and  _214
REMARK   86  A    between atoms: _214  and  _215
REMARK   87  A    between atoms: _214  and  _217
REMARK   88  A    between atoms: _217  and  _218
REMARK   89  A    between atoms: _224  and  _226
REMARK   90  A    between atoms: _226  and  _227
REMARK   91  A    between atoms: _226  and  _229
REMARK   92  A    between atoms: _229  and  _230
REMARK   93  A    between atoms: _230  and  _231
REMARK   94  A    between atoms: _233  and  _235
REMARK   95  A    between atoms: _235  and  _236
REMARK   96  A    between atoms: _235  and  _238
REMARK   97  A    between atoms: _238  and  _239
REMARK   98  A    between atoms: _241  and  _243
REMARK   99  A    between atoms: _243  and  _244
REMARK  100  A    between atoms: _243  and  _246
REMARK  101  A    between atoms: _246  and  _247
REMARK  102  A    between atoms: _247  and  _248
REMARK  103  A    between atoms: _248  and  _249
REMARK  104  A    between atoms: _258  and  _260
REMARK  105  A    between atoms: _260  and  _261
REMARK  106  A    between atoms: _260  and  _263
REMARK  107  A    between atoms: _263  and  _264
REMARK  108  A    between atoms: _269  and  _271
REMARK  109  A    between atoms: _271  and  _272
REMARK  110  A    between atoms: _271  and  _274
REMARK  111  A    between atoms: _274  and  _275
REMARK  112  A    between atoms: _278  and  _280
REMARK  113  A    between atoms: _280  and  _281
REMARK  114  A    between atoms: _280  and  _283
REMARK  115  A    between atoms: _283  and  _284
REMARK  116  A    between atoms: _289  and  _291
REMARK  117  A    between atoms: _291  and  _292
REMARK  118  A    between atoms: _291  and  _294
REMARK  119  A    between atoms: _294  and  _295
REMARK  120  A    between atoms: _298  and  _300
REMARK  121  A    between atoms: _300  and  _301
REMARK  122  A    between atoms: _300  and  _303
REMARK  123  A    between atoms: _303  and  _304
REMARK  124  A    between atoms: _309  and  _311
REMARK  125  A    between atoms: _311  and  _312
REMARK  126  A    between atoms: _311  and  _314
REMARK  127  A    between atoms: _314  and  _315
REMARK  128  A    between atoms: _315  and  _316
REMARK  129  A    between atoms: _318  and  _320
REMARK  130  A    between atoms: _320  and  _321
REMARK  131  A    between atoms: _320  and  _323
REMARK  132  A    between atoms: _323  and  _324
REMARK  133  A    between atoms: _326  and  _328
REMARK  134  A    between atoms: _328  and  _329
REMARK  135  A    between atoms: _328  and  _331
REMARK  136  A    between atoms: _331  and  _332
REMARK  137  A    between atoms: _337  and  _338
REMARK  138  A    between atoms: _340  and  _342
REMARK  139  A    between atoms: _342  and  _343
REMARK  140  A    between atoms: _342  and  _345
REMARK  141  A    between atoms: _345  and  _346
REMARK  142  A    between atoms: _346  and  _347
REMARK  143  A    between atoms: _350  and  _352
REMARK  144  A    between atoms: _352  and  _353
REMARK  145  A    between atoms: _352  and  _355
REMARK  146  A    between atoms: _355  and  _356
REMARK  147  A    between atoms: _356  and  _357
REMARK  148  A    between atoms: _357  and  _358
REMARK  149  A    between atoms: _358  and  FE_414
REMARK  150  A    between atoms: _360  and  _362
REMARK  151  A    between atoms: _362  and  _363
REMARK  152  A    between atoms: _362  and  _365
REMARK  153  A    between atoms: _365  and  _366
REMARK  154  A    between atoms: _371  and  _373
REMARK  155  A    between atoms: _373  and  _374
REMARK  156  A    between atoms: _373  and  _376
REMARK  157  A    between atoms: _376  and  _377
REMARK  158  A    between atoms: _380  and  _381
REMARK  159  A    between atoms: _386  and  _388
REMARK  160  A    between atoms: _388  and  _389
REMARK  161  A    between atoms: _388  and  _391
REMARK  162  A    between atoms: _391  and  _392
REMARK  163  A    between atoms: _394  and  _396
REMARK  164  A    between atoms: _396  and  _397
REMARK  165  A    between atoms: _396  and  _399
REMARK  166  A    between atoms: _399  and  _400
REMARK  167  A    between atoms: _400  and  _401
REMARK  168  A    between atoms: _403  and  _405
REMARK  169  A    between atoms: _405  and  _406
REMARK  170  A    between atoms: _405  and  _408
REMARK  171  A    between atoms: _408  and  _409
REMARK                            x       y       z     vdW  Elec       q    Type
REMARK                         _______ _______ _______ _____ _____    ______ ____
ROOT
ATOM      1  CA  ILE A   1      26.786  16.480  21.306  0.00  0.00    +0.133 C 
ENDROOT
BRANCH   1   2
ATOM      2  N   ILE A   1      25.794  16.214  22.334  0.00  0.00    -0.239 NA
ATOM      3  H   ILE A   1      25.359  17.009  22.844  0.00  0.00    +0.142 HD
ENDBRANCH   1   2
BRANCH   1   4
ATOM      4  C   ILE A   1      27.864  17.331  21.949  0.00  0.00    +0.224 C 
ATOM      5  O   ILE A   1      27.587  18.421  22.443  0.00  0.00    -0.287 OA
ENDBRANCH   1   4
BRANCH   1   6
ATOM      6  CB  ILE A   1      26.205  17.249  20.099  0.00  0.00    +0.023 C 
ATOM      7  CG2 ILE A   1      27.315  17.554  19.096  0.00  0.00    +0.002 C 
BRANCH   6   8
ATOM      8  CG1 ILE A   1      25.116  16.413  19.424  0.00  0.00    +0.002 C 
ATOM      9  CD1 ILE A   1      24.550  17.035  18.167  0.00  0.00    +0.000 C 
ENDBRANCH   6   8
ENDBRANCH   1   6
TORSDOF 4
REMARK  Name = ../refined-set-2016/1lgt/1lgt_pocket.pdb
REMARK  171 active torsions:
REMARK  status: ('A' for Active; 'I' for Inactive)
REMARK    1  A    between atoms: _1  and  _3
REMARK    2  A    between atoms: _3  and  _4
REMARK    3  A    between atoms: _3  and  _6
REMARK    4  A    between atoms: _6  and  _7
REMARK    5  A    between atoms: _11  and  FE_414
REMARK    6  A    between atoms: _12  and  _14
REMARK    7  A    between atoms: _14  and  _15
REMARK    8  A    between atoms: _14  and  _17
REMARK    9  A    between atoms: _17  and  _18
REMARK   10  A    between atoms: _24  and  _26
REMARK   11  A    between atoms: _26  and  _27
REMARK   12  A    between atoms: _26  and  _29
REMARK   13  A    between atoms: _32  and  _34
REMARK   14  A    between atoms: _34  and  _35
REMARK   15  A    between atoms: _34  and  _37
REMARK   16  A    between atoms: _37  and  _38
REMARK   17  A    between atoms: _38  and  _39
REMARK   18  A    between atoms: _39  and  _40
REMARK   19  A    between atoms: _49  and  _51
REMARK   20  A    between atoms: _51  and  _52
REMARK   21  A    between atoms: _51  and  _54
REMARK   22  A    between atoms: _54  and  _55
REMARK   23  A    between atoms: _58  and  _60
REMARK   24  A    between atoms: _60  and  _61
REMARK   25  A    between atoms: _60  and  _63
REMARK   26  A    between atoms: _63  and  _64
REMARK   27  A    between atoms: _67  and  _69
REMARK   28  A    between atoms: _69  and  _70
REMARK   29  A    between atoms: _69  and  _72
REMARK   30  A    between atoms: _72  and  _73
REMARK   31  A    between atoms: _73  and  _74
REMARK   32  A    between atoms: _76  and  _78
REMARK   33  A    between atoms: _78  and  _79
REMARK   34  A    between atoms: _78  and  _81
REMARK   35  A    between atoms: _81  and  _82
REMARK   36  A    between atoms: _82  and  _83
REMARK   37  A    between atoms: _85  and  _87
REMARK   38  A    between atoms: _87  and  _88
REMARK   39  A    between atoms: _91  and  _93
REMARK   40  A    between atoms: _93  and  _94
REMARK   41  A    between atoms: _93  and  _96
REMARK   42  A    between atoms: _96  and  _97
REMARK   43  A    between atoms: _102  and  _103
REMARK   44  A    between atoms: _105  and  _107
REMARK   45  A    between atoms: _107  and  _108
REMARK   46  A    between atoms: _107  and  _110
REMARK   47  A    between atoms: _110  and  _111
REMARK   48  A    between atoms: _117  and  _119
REMARK   49  A    between atoms: _119  and  _120
REMARK   50  A    between atoms: _119  and  _122
REMARK   51  A    between atoms: _122  and  _123
REMARK   52  A    between atoms: _128  and  _130
REMARK   53  A    between atoms: _130  and  _131
REMARK   54  A    between atoms: _130  and  _133
REMARK   55  A    between atoms: _133  and  _134
REMARK   56  A    between atoms: _139  and  _141
REMARK   57  A    between atoms: _141  and  _142
REMARK   58  A    between atoms: _141  and  _144
REMARK   59  A    between atoms: _144  and  _145
REMARK   60  A    between atoms: _148  and  _150
REMARK   61  A    between atoms: _150  and  _151
REMARK   62  A    between atoms: _154  and  _156
REMARK   63  A    between atoms: _156  and  _157
REMARK   64  A    between atoms: _156  and  _159
REMARK   65  A    between atoms: _159  and  _160
REMARK   66  A    between atoms: _163  and  _165
REMARK   67  A    between atoms: _165  and  _166
REMARK   68  A    between atoms: _169  and  _171
REMARK   69  A    between atoms: _171  and  _172
REMARK   70  A    between atoms: _171  and  _174
REMARK   71  A    between atoms: _174  and  _175
REMARK   72  A    between atoms: _181  and  _183
REMARK   73  A    between atoms: _183  and  _184
REMARK   74  A    between atoms: _183  and  _186
REMARK   75  A    between atoms: _186  and  _187
REMARK   76  A    between atoms: _190  and  _192
REMARK   77  A    between atoms: _192  and  _193
REMARK   78  A    between atoms: _192  and  _195
REMARK   79  A    between atoms: _195  and  _196
REMARK   80  A    between atoms: _201  and  _203
REMARK   81  A    between atoms: _203  and  _204
REMARK   82  A    between atoms: _203  and  _206
REMARK   83  A    between atoms: _206  and  _207
REMARK   84  A    between atoms: _211  and  FE_414
REMARK   85  A    between atoms: _212  and  _214
REMARK   86  A    between atoms: _214  and  _215
REMARK   87  A    between atoms: _214  and  _217
REMARK   88  A    between atoms: _217  and  _218
REMARK   89  A    between atoms: _224  and  _226
REMARK   90  A    between atoms: _226  and  _227
REMARK   91  A    between atoms: _226  and  _229
REMARK   92  A    between atoms: _229  and  _230
REMARK   93  A    between atoms: _230  and  _231
REMARK   94  A    between atoms: _233  and  _235
REMARK   95  A    between atoms: _235  and  _236
REMARK   96  A    between atoms: _235  and  _238
REMARK   97  A    between atoms: _238  and  _239
REMARK   98  A    between atoms: _241  and  _243
REMARK   99  A    between atoms: _243  and  _244
REMARK  100  A    between atoms: _243  and  _246
REMARK  101  A    between atoms: _246  and  _247
REMARK  102  A    between atoms: _247  and  _248
REMARK  103  A    between atoms: _248  and  _249
REMARK  104  A    between atoms: _258  and  _260
REMARK  105  A    between atoms: _260  and  _261
REMARK  106  A    between atoms: _260  and  _263
REMARK  107  A    between atoms: _263  and  _264
REMARK  108  A    between atoms: _269  and  _271
REMARK  109  A    between atoms: _271  and  _272
REMARK  110  A    between atoms: _271  and  _274
REMARK  111  A    between atoms: _274  and  _275
REMARK  112  A    between atoms: _278  and  _280
REMARK  113  A    between atoms: _280  and  _281
REMARK  114  A    between atoms: _280  and  _283
REMARK  115  A    between atoms: _283  and  _284
REMARK  116  A    between atoms: _289  and  _291
REMARK  117  A    between atoms: _291  and  _292
REMARK  118  A    between atoms: _291  and  _294
REMARK  119  A    between atoms: _294  and  _295
REMARK  120  A    between atoms: _298  and  _300
REMARK  121  A    between atoms: _300  and  _301
REMARK  122  A    between atoms: _300  and  _303
REMARK  123  A    between atoms: _303  and  _304
REMARK  124  A    between atoms: _309  and  _311
REMARK  125  A    between atoms: _311  and  _312
REMARK  126  A    between atoms: _311  and  _314
REMARK  127  A    between atoms: _314  and  _315
REMARK  128  A    between atoms: _315  and  _316
REMARK  129  A    between atoms: _318  and  _320
REMARK  130  A    between atoms: _320  and  _321
REMARK  131  A    between atoms: _320  and  _323
REMARK  132  A    between atoms: _323  and  _324
REMARK  133  A    between atoms: _326  and  _328
REMARK  134  A    between atoms: _328  and  _329
REMARK  135  A    between atoms: _328  and  _331
REMARK  136  A    between atoms: _331  and  _332
REMARK  137  A    between atoms: _337  and  _338
REMARK  138  A    between atoms: _340  and  _342
REMARK  139  A    between atoms: _342  and  _343
REMARK  140  A    between atoms: _342  and  _345
REMARK  141  A    between atoms: _345  and  _346
REMARK  142  A    between atoms: _346  and  _347
REMARK  143  A    between atoms: _350  and  _352
REMARK  144  A    between atoms: _352  and  _353
REMARK  145  A    between atoms: _352  and  _355
REMARK  146  A    between atoms: _355  and  _356
REMARK  147  A    between atoms: _356  and  _357
REMARK  148  A    between atoms: _357  and  _358
REMARK  149  A    between atoms: _358  and  FE_414
REMARK  150  A    between atoms: _360  and  _362
REMARK  151  A    between atoms: _362  and  _363
REMARK  152  A    between atoms: _362  and  _365
REMARK  153  A    between atoms: _365  and  _366
REMARK  154  A    between atoms: _371  and  _373
REMARK  155  A    between atoms: _373  and  _374
REMARK  156  A    between atoms: _373  and  _376
REMARK  157  A    between atoms: _376  and  _377
REMARK  158  A    between atoms: _380  and  _381
REMARK  159  A    between atoms: _386  and  _388
REMARK  160  A    between atoms: _388  and  _389
REMARK  161  A    between atoms: _388  and  _391
REMARK  162  A    between atoms: _391  and  _392
REMARK  163  A    between atoms: _394  and  _396
REMARK  164  A    between atoms: _396  and  _397
REMARK  165  A    between atoms: _396  and  _399
REMARK  166  A    between atoms: _399  and  _400
REMARK  167  A    between atoms: _400  and  _401
REMARK  168  A    between atoms: _403  and  _405
REMARK  169  A    between atoms: _405  and  _406
REMARK  170  A    between atoms: _405  and  _408
REMARK  171  A    between atoms: _408  and  _409
REMARK                            x       y       z     vdW  Elec       q    Type
REMARK                         _______ _______ _______ _____ _____    ______ ____
ROOT
ATOM      1  CA  MET A   1      30.618  20.764  20.513  0.00  0.00    +0.134 C 
ENDROOT
BRANCH   1   2
ATOM      2  N   MET A   1      30.279  19.742  21.496  0.00  0.00    -0.239 NA
ATOM      3  H   MET A   1      29.670  20.014  22.294  0.00  0.00    +0.142 HD
ENDBRANCH   1   2
BRANCH   1   4
ATOM      4  C   MET A   1      32.034  21.296  20.645  0.00  0.00    +0.224 C 
ATOM      5  O   MET A   1      32.391  21.860  21.674  0.00  0.00    -0.287 OA
ENDBRANCH   1   4
BRANCH   1   6
ATOM      6  CB  MET A   1      29.655  21.945  20.651  0.00  0.00    +0.037 C 
BRANCH   6   7
ATOM      7  CG  MET A   1      28.188  21.577  20.613  0.00  0.00    +0.059 C 
BRANCH   7   8
ATOM      8  SD  MET A   1      27.582  21.441  18.941  0.00  0.00    -0.139 S 
ATOM      9  CE  MET A   1      25.808  21.287  19.232  0.00  0.00    +0.069 C 
ENDBRANCH   7   8
ENDBRANCH   6   7
ENDBRANCH   1   6
TORSDOF 5
REMARK  Name = ../refined-set-2016/1lgt/1lgt_pocket.pdb
REMARK  171 active torsions:
REMARK  status: ('A' for Active; 'I' for Inactive)
REMARK    1  A    between atoms: _1  and  _3
REMARK    2  A    between atoms: _3  and  _4
REMARK    3  A    between atoms: _3  and  _6
REMARK    4  A    between atoms: _6  and  _7
REMARK    5  A    between atoms: _11  and  FE_414
REMARK    6  A    between atoms: _12  and  _14
REMARK    7  A    between atoms: _14  and  _15
REMARK    8  A    between atoms: _14  and  _17
REMARK    9  A    between atoms: _17  and  _18
REMARK   10  A    between atoms: _24  and  _26
REMARK   11  A    between atoms: _26  and  _27
REMARK   12  A    between atoms: _26  and  _29
REMARK   13  A    between atoms: _32  and  _34
REMARK   14  A    between atoms: _34  and  _35
REMARK   15  A    between atoms: _34  and  _37
REMARK   16  A    between atoms: _37  and  _38
REMARK   17  A    between atoms: _38  and  _39
REMARK   18  A    between atoms: _39  and  _40
REMARK   19  A    between atoms: _49  and  _51
REMARK   20  A    between atoms: _51  and  _52
REMARK   21  A    between atoms: _51  and  _54
REMARK   22  A    between atoms: _54  and  _55
REMARK   23  A    between atoms: _58  and  _60
REMARK   24  A    between atoms: _60  and  _61
REMARK   25  A    between atoms: _60  and  _63
REMARK   26  A    between atoms: _63  and  _64
REMARK   27  A    between atoms: _67  and  _69
REMARK   28  A    between atoms: _69  and  _70
REMARK   29  A    between atoms: _69  and  _72
REMARK   30  A    between atoms: _72  and  _73
REMARK   31  A    between atoms: _73  and  _74
REMARK   32  A    between atoms: _76  and  _78
REMARK   33  A    between atoms: _78  and  _79
REMARK   34  A    between atoms: _78  and  _81
REMARK   35  A    between atoms: _81  and  _82
REMARK   36  A    between atoms: _82  and  _83
REMARK   37  A    between atoms: _85  and  _87
REMARK   38  A    between atoms: _87  and  _88
REMARK   39  A    between atoms: _91  and  _93
REMARK   40  A    between atoms: _93  and  _94
REMARK   41  A    between atoms: _93  and  _96
REMARK   42  A    between atoms: _96  and  _97
REMARK   43  A    between atoms: _102  and  _103
REMARK   44  A    between atoms: _105  and  _107
REMARK   45  A    between atoms: _107  and  _108
REMARK   46  A    between atoms: _107  and  _110
REMARK   47  A    between atoms: _110  and  _111
REMARK   48  A    between atoms: _117  and  _119
REMARK   49  A    between atoms: _119  and  _120
REMARK   50  A    between atoms: _119  and  _122
REMARK   51  A    between atoms: _122  and  _123
REMARK   52  A    between atoms: _128  and  _130
REMARK   53  A    between atoms: _130  and  _131
REMARK   54  A    between atoms: _130  and  _133
REMARK   55  A    between atoms: _133  and  _134
REMARK   56  A    between atoms: _139  and  _141
REMARK   57  A    between atoms: _141  and  _142
REMARK   58  A    between atoms: _141  and  _144
REMARK   59  A    between atoms: _144  and  _145
REMARK   60  A    between atoms: _148  and  _150
REMARK   61  A    between atoms: _150  and  _151
REMARK   62  A    between atoms: _154  and  _156
REMARK   63  A    between atoms: _156  and  _157
REMARK   64  A    between atoms: _156  and  _159
REMARK   65  A    between atoms: _159  and  _160
REMARK   66  A    between atoms: _163  and  _165
REMARK   67  A    between atoms: _165  and  _166
REMARK   68  A    between atoms: _169  and  _171
REMARK   69  A    between atoms: _171  and  _172
REMARK   70  A    between atoms: _171  and  _174
REMARK   71  A    between atoms: _174  and  _175
REMARK   72  A    between atoms: _181  and  _183
REMARK   73  A    between atoms: _183  and  _184
REMARK   74  A    between atoms: _183  and  _186
REMARK   75  A    between atoms: _186  and  _187
REMARK   76  A    between atoms: _190  and  _192
REMARK   77  A    between atoms: _192  and  _193
REMARK   78  A    between atoms: _192  and  _195
REMARK   79  A    between atoms: _195  and  _196
REMARK   80  A    between atoms: _201  and  _203
REMARK   81  A    between atoms: _203  and  _204
REMARK   82  A    between atoms: _203  and  _206
REMARK   83  A    between atoms: _206  and  _207
REMARK   84  A    between atoms: _211  and  FE_414
REMARK   85  A    between atoms: _212  and  _214
REMARK   86  A    between atoms: _214  and  _215
REMARK   87  A    between atoms: _214  and  _217
REMARK   88  A    between atoms: _217  and  _218
REMARK   89  A    between atoms: _224  and  _226
REMARK   90  A    between atoms: _226  and  _227
REMARK   91  A    between atoms: _226  and  _229
REMARK   92  A    between atoms: _229  and  _230
REMARK   93  A    between atoms: _230  and  _231
REMARK   94  A    between atoms: _233  and  _235
REMARK   95  A    between atoms: _235  and  _236
REMARK   96  A    between atoms: _235  and  _238
REMARK   97  A    between atoms: _238  and  _239
REMARK   98  A    between atoms: _241  and  _243
REMARK   99  A    between atoms: _243  and  _244
REMARK  100  A    between atoms: _243  and  _246
REMARK  101  A    between atoms: _246  and  _247
REMARK  102  A    between atoms: _247  and  _248
REMARK  103  A    between atoms: _248  and  _249
REMARK  104  A    between atoms: _258  and  _260
REMARK  105  A    between atoms: _260  and  _261
REMARK  106  A    between atoms: _260  and  _263
REMARK  107  A    between atoms: _263  and  _264
REMARK  108  A    between atoms: _269  and  _271
REMARK  109  A    between atoms: _271  and  _272
REMARK  110  A    between atoms: _271  and  _274
REMARK  111  A    between atoms: _274  and  _275
REMARK  112  A    between atoms: _278  and  _280
REMARK  113  A    between atoms: _280  and  _281
REMARK  114  A    between atoms: _280  and  _283
REMARK  115  A    between atoms: _283  and  _284
REMARK  116  A    between atoms: _289  and  _291
REMARK  117  A    between atoms: _291  and  _292
REMARK  118  A    between atoms: _291  and  _294
REMARK  119  A    between atoms: _294  and  _295
REMARK  120  A    between atoms: _298  and  _300
REMARK  121  A    between atoms: _300  and  _301
REMARK  122  A    between atoms: _300  and  _303
REMARK  123  A    between atoms: _303  and  _304
REMARK  124  A    between atoms: _309  and  _311
REMARK  125  A    between atoms: _311  and  _312
REMARK  126  A    between atoms: _311  and  _314
REMARK  127  A    between atoms: _314  and  _315
REMARK  128  A    between atoms: _315  and  _316
REMARK  129  A    between atoms: _318  and  _320
REMARK  130  A    between atoms: _320  and  _321
REMARK  131  A    between atoms: _320  and  _323
REMARK  132  A    between atoms: _323  and  _324
REMARK  133  A    between atoms: _326  and  _328
REMARK  134  A    between atoms: _328  and  _329
REMARK  135  A    between atoms: _328  and  _331
REMARK  136  A    between atoms: _331  and  _332
REMARK  137  A    between atoms: _337  and  _338
REMARK  138  A    between atoms: _340  and  _342
REMARK  139  A    between atoms: _342  and  _343
REMARK  140  A    between atoms: _342  and  _345
REMARK  141  A    between atoms: _345  and  _346
REMARK  142  A    between atoms: _346  and  _347
REMARK  143  A    between atoms: _350  and  _352
REMARK  144  A    between atoms: _352  and  _353
REMARK  145  A    between atoms: _352  and  _355
REMARK  146  A    between atoms: _355  and  _356
REMARK  147  A    between atoms: _356  and  _357
REMARK  148  A    between atoms: _357  and  _358
REMARK  149  A    between atoms: _358  and  FE_414
REMARK  150  A    between atoms: _360  and  _362
REMARK  151  A    between atoms: _362  and  _363
REMARK  152  A    between atoms: _362  and  _365
REMARK  153  A    between atoms: _365  and  _366
REMARK  154  A    between atoms: _371  and  _373
REMARK  155  A    between atoms: _373  and  _374
REMARK  156  A    between atoms: _373  and  _376
REMARK  157  A    between atoms: _376  and  _377
REMARK  158  A    between atoms: _380  and  _381
REMARK  159  A    between atoms: _386  and  _388
REMARK  160  A    between atoms: _388  and  _389
REMARK  161  A    between atoms: _388  and  _391
REMARK  162  A    between atoms: _391  and  _392
REMARK  163  A    between atoms: _394  and  _396
REMARK  164  A    between atoms: _396  and  _397
REMARK  165  A    between atoms: _396  and  _399
REMARK  166  A    between atoms: _399  and  _400
REMARK  167  A    between atoms: _400  and  _401
REMARK  168  A    between atoms: _403  and  _405
REMARK  169  A    between atoms: _405  and  _406
REMARK  170  A    between atoms: _405  and  _408
REMARK  171  A    between atoms: _408  and  _409
REMARK                            x       y       z     vdW  Elec       q    Type
REMARK                         _______ _______ _______ _____ _____    ______ ____
ROOT
ATOM      1  CA  MET A   1      34.495  25.372  20.193  0.00  0.00    +0.134 C 
ENDROOT
BRANCH   1   2
ATOM      2  N   MET A   1      34.502  23.921  20.326  0.00  0.00    -0.239 NA
ATOM      3  H   MET A   1      34.796  23.496  21.229  0.00  0.00    +0.142 HD
ENDBRANCH   1   2
BRANCH   1   4
ATOM      4  C   MET A   1      35.888  25.832  19.785  0.00  0.00    +0.224 C 
ATOM      5  O   MET A   1      36.049  26.831  19.084  0.00  0.00    -0.287 OA
ENDBRANCH   1   4
BRANCH   1   6
ATOM      6  CB  MET A   1      34.112  26.023  21.522  0.00  0.00    +0.037 C 
BRANCH   6   7
ATOM      7  CG  MET A   1      32.816  25.505  22.125  0.00  0.00    +0.059 C 
BRANCH   7   8
ATOM      8  SD  MET A   1      31.379  25.844  21.094  0.00  0.00    -0.139 S 
ATOM      9  CE  MET A   1      30.939  27.469  21.669  0.00  0.00    +0.069 C 
ENDBRANCH   7   8
ENDBRANCH   6   7
ENDBRANCH   1   6
TORSDOF 5
REMARK  Name = ../refined-set-2016/1lgt/1lgt_pocket.pdb
REMARK  171 active torsions:
REMARK  status: ('A' for Active; 'I' for Inactive)
REMARK    1  A    between atoms: _1  and  _3
REMARK    2  A    between atoms: _3  and  _4
REMARK    3  A    between atoms: _3  and  _6
REMARK    4  A    between atoms: _6  and  _7
REMARK    5  A    between atoms: _11  and  FE_414
REMARK    6  A    between atoms: _12  and  _14
REMARK    7  A    between atoms: _14  and  _15
REMARK    8  A    between atoms: _14  and  _17
REMARK    9  A    between atoms: _17  and  _18
REMARK   10  A    between atoms: _24  and  _26
REMARK   11  A    between atoms: _26  and  _27
REMARK   12  A    between atoms: _26  and  _29
REMARK   13  A    between atoms: _32  and  _34
REMARK   14  A    between atoms: _34  and  _35
REMARK   15  A    between atoms: _34  and  _37
REMARK   16  A    between atoms: _37  and  _38
REMARK   17  A    between atoms: _38  and  _39
REMARK   18  A    between atoms: _39  and  _40
REMARK   19  A    between atoms: _49  and  _51
REMARK   20  A    between atoms: _51  and  _52
REMARK   21  A    between atoms: _51  and  _54
REMARK   22  A    between atoms: _54  and  _55
REMARK   23  A    between atoms: _58  and  _60
REMARK   24  A    between atoms: _60  and  _61
REMARK   25  A    between atoms: _60  and  _63
REMARK   26  A    between atoms: _63  and  _64
REMARK   27  A    between atoms: _67  and  _69
REMARK   28  A    between atoms: _69  and  _70
REMARK   29  A    between atoms: _69  and  _72
REMARK   30  A    between atoms: _72  and  _73
REMARK   31  A    between atoms: _73  and  _74
REMARK   32  A    between atoms: _76  and  _78
REMARK   33  A    between atoms: _78  and  _79
REMARK   34  A    between atoms: _78  and  _81
REMARK   35  A    between atoms: _81  and  _82
REMARK   36  A    between atoms: _82  and  _83
REMARK   37  A    between atoms: _85  and  _87
REMARK   38  A    between atoms: _87  and  _88
REMARK   39  A    between atoms: _91  and  _93
REMARK   40  A    between atoms: _93  and  _94
REMARK   41  A    between atoms: _93  and  _96
REMARK   42  A    between atoms: _96  and  _97
REMARK   43  A    between atoms: _102  and  _103
REMARK   44  A    between atoms: _105  and  _107
REMARK   45  A    between atoms: _107  and  _108
REMARK   46  A    between atoms: _107  and  _110
REMARK   47  A    between atoms: _110  and  _111
REMARK   48  A    between atoms: _117  and  _119
REMARK   49  A    between atoms: _119  and  _120
REMARK   50  A    between atoms: _119  and  _122
REMARK   51  A    between atoms: _122  and  _123
REMARK   52  A    between atoms: _128  and  _130
REMARK   53  A    between atoms: _130  and  _131
REMARK   54  A    between atoms: _130  and  _133
REMARK   55  A    between atoms: _133  and  _134
REMARK   56  A    between atoms: _139  and  _141
REMARK   57  A    between atoms: _141  and  _142
REMARK   58  A    between atoms: _141  and  _144
REMARK   59  A    between atoms: _144  and  _145
REMARK   60  A    between atoms: _148  and  _150
REMARK   61  A    between atoms: _150  and  _151
REMARK   62  A    between atoms: _154  and  _156
REMARK   63  A    between atoms: _156  and  _157
REMARK   64  A    between atoms: _156  and  _159
REMARK   65  A    between atoms: _159  and  _160
REMARK   66  A    between atoms: _163  and  _165
REMARK   67  A    between atoms: _165  and  _166
REMARK   68  A    between atoms: _169  and  _171
REMARK   69  A    between atoms: _171  and  _172
REMARK   70  A    between atoms: _171  and  _174
REMARK   71  A    between atoms: _174  and  _175
REMARK   72  A    between atoms: _181  and  _183
REMARK   73  A    between atoms: _183  and  _184
REMARK   74  A    between atoms: _183  and  _186
REMARK   75  A    between atoms: _186  and  _187
REMARK   76  A    between atoms: _190  and  _192
REMARK   77  A    between atoms: _192  and  _193
REMARK   78  A    between atoms: _192  and  _195
REMARK   79  A    between atoms: _195  and  _196
REMARK   80  A    between atoms: _201  and  _203
REMARK   81  A    between atoms: _203  and  _204
REMARK   82  A    between atoms: _203  and  _206
REMARK   83  A    between atoms: _206  and  _207
REMARK   84  A    between atoms: _211  and  FE_414
REMARK   85  A    between atoms: _212  and  _214
REMARK   86  A    between atoms: _214  and  _215
REMARK   87  A    between atoms: _214  and  _217
REMARK   88  A    between atoms: _217  and  _218
REMARK   89  A    between atoms: _224  and  _226
REMARK   90  A    between atoms: _226  and  _227
REMARK   91  A    between atoms: _226  and  _229
REMARK   92  A    between atoms: _229  and  _230
REMARK   93  A    between atoms: _230  and  _231
REMARK   94  A    between atoms: _233  and  _235
REMARK   95  A    between atoms: _235  and  _236
REMARK   96  A    between atoms: _235  and  _238
REMARK   97  A    between atoms: _238  and  _239
REMARK   98  A    between atoms: _241  and  _243
REMARK   99  A    between atoms: _243  and  _244
REMARK  100  A    between atoms: _243  and  _246
REMARK  101  A    between atoms: _246  and  _247
REMARK  102  A    between atoms: _247  and  _248
REMARK  103  A    between atoms: _248  and  _249
REMARK  104  A    between atoms: _258  and  _260
REMARK  105  A    between atoms: _260  and  _261
REMARK  106  A    between atoms: _260  and  _263
REMARK  107  A    between atoms: _263  and  _264
REMARK  108  A    between atoms: _269  and  _271
REMARK  109  A    between atoms: _271  and  _272
REMARK  110  A    between atoms: _271  and  _274
REMARK  111  A    between atoms: _274  and  _275
REMARK  112  A    between atoms: _278  and  _280
REMARK  113  A    between atoms: _280  and  _281
REMARK  114  A    between atoms: _280  and  _283
REMARK  115  A    between atoms: _283  and  _284
REMARK  116  A    between atoms: _289  and  _291
REMARK  117  A    between atoms: _291  and  _292
REMARK  118  A    between atoms: _291  and  _294
REMARK  119  A    between atoms: _294  and  _295
REMARK  120  A    between atoms: _298  and  _300
REMARK  121  A    between atoms: _300  and  _301
REMARK  122  A    between atoms: _300  and  _303
REMARK  123  A    between atoms: _303  and  _304
REMARK  124  A    between atoms: _309  and  _311
REMARK  125  A    between atoms: _311  and  _312
REMARK  126  A    between atoms: _311  and  _314
REMARK  127  A    between atoms: _314  and  _315
REMARK  128  A    between atoms: _315  and  _316
REMARK  129  A    between atoms: _318  and  _320
REMARK  130  A    between atoms: _320  and  _321
REMARK  131  A    between atoms: _320  and  _323
REMARK  132  A    between atoms: _323  and  _324
REMARK  133  A    between atoms: _326  and  _328
REMARK  134  A    between atoms: _328  and  _329
REMARK  135  A    between atoms: _328  and  _331
REMARK  136  A    between atoms: _331  and  _332
REMARK  137  A    between atoms: _337  and  _338
REMARK  138  A    between atoms: _340  and  _342
REMARK  139  A    between atoms: _342  and  _343
REMARK  140  A    between atoms: _342  and  _345
REMARK  141  A    between atoms: _345  and  _346
REMARK  142  A    between atoms: _346  and  _347
REMARK  143  A    between atoms: _350  and  _352
REMARK  144  A    between atoms: _352  and  _353
REMARK  145  A    between atoms: _352  and  _355
REMARK  146  A    between atoms: _355  and  _356
REMARK  147  A    between atoms: _356  and  _357
REMARK  148  A    between atoms: _357  and  _358
REMARK  149  A    between atoms: _358  and  FE_414
REMARK  150  A    between atoms: _360  and  _362
REMARK  151  A    between atoms: _362  and  _363
REMARK  152  A    between atoms: _362  and  _365
REMARK  153  A    between atoms: _365  and  _366
REMARK  154  A    between atoms: _371  and  _373
REMARK  155  A    between atoms: _373  and  _374
REMARK  156  A    between atoms: _373  and  _376
REMARK  157  A    between atoms: _376  and  _377
REMARK  158  A    between atoms: _380  and  _381
REMARK  159  A    between atoms: _386  and  _388
REMARK  160  A    between atoms: _388  and  _389
REMARK  161  A    between atoms: _388  and  _391
REMARK  162  A    between atoms: _391  and  _392
REMARK  163  A    between atoms: _394  and  _396
REMARK  164  A    between atoms: _396  and  _397
REMARK  165  A    between atoms: _396  and  _399
REMARK  166  A    between atoms: _399  and  _400
REMARK  167  A    between atoms: _400  and  _401
REMARK  168  A    between atoms: _403  and  _405
REMARK  169  A    between atoms: _405  and  _406
REMARK  170  A    between atoms: _405  and  _408
REMARK  171  A    between atoms: _408  and  _409
REMARK                            x       y       z     vdW  Elec       q    Type
REMARK                         _______ _______ _______ _____ _____    ______ ____
ROOT
ATOM      1  CA  TYR A   2      21.949  18.528  25.558  0.00  0.00    +0.153 C 
ENDROOT
BRANCH   1   3
ATOM      2  C   ALA A   1      23.972  19.288  24.422  0.00  0.00    +0.238 C 
ATOM      3  N   TYR A   2      22.938  19.549  25.215  0.00  0.00    -0.297 N 
ATOM      4  H   TYR A   2      22.829  20.508  25.603  0.00  0.00    +0.150 HD
ATOM      5  O   ALA A   1      24.184  18.176  23.934  0.00  0.00    -0.274 OA
BRANCH   2   6
ATOM      6  CA  ALA A   1      24.935  20.441  24.156  0.00  0.00    +0.145 C 
ATOM      7  CB  ALA A   1      24.874  20.861  22.696  0.00  0.00    +0.028 C 
BRANCH   6   8
ATOM      8  N   ALA A   1      26.240  19.889  24.475  0.00  0.00    -0.238 NA
ATOM      9  H   ALA A   1      26.629  19.129  23.880  0.00  0.00    +0.142 HD
ENDBRANCH   6   8
ENDBRANCH   2   6
ENDBRANCH   1   3
BRANCH   1  10
ATOM     10  C   TYR A   2      20.672  18.739  24.756  0.00  0.00    +0.241 C 
ATOM     11  O   TYR A   2      20.148  19.848  24.704  0.00  0.00    -0.273 OA
ATOM     12  N   PHE A   3      20.177  17.677  24.126  0.00  0.00    -0.298 N 
ATOM     13  H   PHE A   3      20.671  16.765  24.200  0.00  0.00    +0.150 HD
BRANCH  12  14
ATOM     14  CA  PHE A   3      18.954  17.767  23.333  0.00  0.00    +0.141 C 
BRANCH  14  15
ATOM     15  C   PHE A   3      17.862  16.989  24.054  0.00  0.00    +0.227 C 
ATOM     16  O   PHE A   3      18.013  15.797  24.323  0.00  0.00    -0.286 OA
ENDBRANCH  14  15
BRANCH  14  17
ATOM     17  CB  PHE A   3      19.213  17.231  21.923  0.00  0.00    +0.054 C 
BRANCH  17  18
ATOM     18  CG  PHE A   3      20.264  18.012  21.186  0.00  0.00    -0.020 A 
ATOM     19  CD2 PHE A   3      21.619  17.805  21.450  0.00  0.00    -0.004 A 
ATOM     20  CE2 PHE A   3      22.591  18.597  20.847  0.00  0.00    -0.000 A 
ATOM     21  CZ  PHE A   3      22.217  19.607  19.967  0.00  0.00    -0.000 A 
ATOM     22  CE1 PHE A   3      20.869  19.821  19.690  0.00  0.00    -0.000 A 
ATOM     23  CD1 PHE A   3      19.902  19.020  20.300  0.00  0.00    -0.004 A 
ENDBRANCH  17  18
ENDBRANCH  14  17
ENDBRANCH  12  14
ENDBRANCH   1  10
BRANCH   1  24
ATOM     24  CB  TYR A   2      21.639  18.597  27.055  0.00  0.00    +0.055 C 
BRANCH  24  25
ATOM     25  CG  TYR A   2      22.863  18.391  27.919  0.00  0.00    -0.020 A 
ATOM     26  CD2 TYR A   2      23.578  19.483  28.420  0.00  0.00    -0.001 A 
ATOM     27  CE2 TYR A   2      24.731  19.300  29.177  0.00  0.00    +0.036 A 
ATOM     28  CZ  TYR A   2      25.181  18.016  29.442  0.00  0.00    +0.134 A 
ATOM     29  CE1 TYR A   2      24.489  16.915  28.960  0.00  0.00    +0.036 A 
ATOM     30  CD1 TYR A   2      23.333  17.110  28.201  0.00  0.00    -0.001 A 
BRANCH  28  31
ATOM     31  OH  TYR A   2      26.327  17.834  30.177  0.00  0.00    -0.506 OA
ATOM     32  HH  TYR A   2      26.506  16.865  30.273  0.00  0.00    +0.292 HD
ENDBRANCH  28  31
ENDBRANCH  24  25
ENDBRANCH   1  24
TORSDOF 11
REMARK  Name = ../refined-set-2016/1lgt/1lgt_pocket.pdb
REMARK  171 active torsions:
REMARK  status: ('A' for Active; 'I' for Inactive)
REMARK    1  A    between atoms: _1  and  _3
REMARK    2  A    between atoms: _3  and  _4
REMARK    3  A    between atoms: _3  and  _6
REMARK    4  A    between atoms: _6  and  _7
REMARK    5  A    between atoms: _11  and  FE_414
REMARK    6  A    between atoms: _12  and  _14
REMARK    7  A    between atoms: _14  and  _15
REMARK    8  A    between atoms: _14  and  _17
REMARK    9  A    between atoms: _17  and  _18
REMARK   10  A    between atoms: _24  and  _26
REMARK   11  A    between atoms: _26  and  _27
REMARK   12  A    between atoms: _26  and  _29
REMARK   13  A    between atoms: _32  and  _34
REMARK   14  A    between atoms: _34  and  _35
REMARK   15  A    between atoms: _34  and  _37
REMARK   16  A    between atoms: _37  and  _38
REMARK   17  A    between atoms: _38  and  _39
REMARK   18  A    between atoms: _39  and  _40
REMARK   19  A    between atoms: _49  and  _51
REMARK   20  A    between atoms: _51  and  _52
REMARK   21  A    between atoms: _51  and  _54
REMARK   22  A    between atoms: _54  and  _55
REMARK   23  A    between atoms: _58  and  _60
REMARK   24  A    between atoms: _60  and  _61
REMARK   25  A    between atoms: _60  and  _63
REMARK   26  A    between atoms: _63  and  _64
REMARK   27  A    between atoms: _67  and  _69
REMARK   28  A    between atoms: _69  and  _70
REMARK   29  A    between atoms: _69  and  _72
REMARK   30  A    between atoms: _72  and  _73
REMARK   31  A    between atoms: _73  and  _74
REMARK   32  A    between atoms: _76  and  _78
REMARK   33  A    between atoms: _78  and  _79
REMARK   34  A    between atoms: _78  and  _81
REMARK   35  A    between atoms: _81  and  _82
REMARK   36  A    between atoms: _82  and  _83
REMARK   37  A    between atoms: _85  and  _87
REMARK   38  A    between atoms: _87  and  _88
REMARK   39  A    between atoms: _91  and  _93
REMARK   40  A    between atoms: _93  and  _94
REMARK   41  A    between atoms: _93  and  _96
REMARK   42  A    between atoms: _96  and  _97
REMARK   43  A    between atoms: _102  and  _103
REMARK   44  A    between atoms: _105  and  _107
REMARK   45  A    between atoms: _107  and  _108
REMARK   46  A    between atoms: _107  and  _110
REMARK   47  A    between atoms: _110  and  _111
REMARK   48  A    between atoms: _117  and  _119
REMARK   49  A    between atoms: _119  and  _120
REMARK   50  A    between atoms: _119  and  _122
REMARK   51  A    between atoms: _122  and  _123
REMARK   52  A    between atoms: _128  and  _130
REMARK   53  A    between atoms: _130  and  _131
REMARK   54  A    between atoms: _130  and  _133
REMARK   55  A    between atoms: _133  and  _134
REMARK   56  A    between atoms: _139  and  _141
REMARK   57  A    between atoms: _141  and  _142
REMARK   58  A    between atoms: _141  and  _144
REMARK   59  A    between atoms: _144  and  _145
REMARK   60  A    between atoms: _148  and  _150
REMARK   61  A    between atoms: _150  and  _151
REMARK   62  A    between atoms: _154  and  _156
REMARK   63  A    between atoms: _156  and  _157
REMARK   64  A    between atoms: _156  and  _159
REMARK   65  A    between atoms: _159  and  _160
REMARK   66  A    between atoms: _163  and  _165
REMARK   67  A    between atoms: _165  and  _166
REMARK   68  A    between atoms: _169  and  _171
REMARK   69  A    between atoms: _171  and  _172
REMARK   70  A    between atoms: _171  and  _174
REMARK   71  A    between atoms: _174  and  _175
REMARK   72  A    between atoms: _181  and  _183
REMARK   73  A    between atoms: _183  and  _184
REMARK   74  A    between atoms: _183  and  _186
REMARK   75  A    between atoms: _186  and  _187
REMARK   76  A    between atoms: _190  and  _192
REMARK   77  A    between atoms: _192  and  _193
REMARK   78  A    between atoms: _192  and  _195
REMARK   79  A    between atoms: _195  and  _196
REMARK   80  A    between atoms: _201  and  _203
REMARK   81  A    between atoms: _203  and  _204
REMARK   82  A    between atoms: _203  and  _206
REMARK   83  A    between atoms: _206  and  _207
REMARK   84  A    between atoms: _211  and  FE_414
REMARK   85  A    between atoms: _212  and  _214
REMARK   86  A    between atoms: _214  and  _215
REMARK   87  A    between atoms: _214  and  _217
REMARK   88  A    between atoms: _217  and  _218
REMARK   89  A    between atoms: _224  and  _226
REMARK   90  A    between atoms: _226  and  _227
REMARK   91  A    between atoms: _226  and  _229
REMARK   92  A    between atoms: _229  and  _230
REMARK   93  A    between atoms: _230  and  _231
REMARK   94  A    between atoms: _233  and  _235
REMARK   95  A    between atoms: _235  and  _236
REMARK   96  A    between atoms: _235  and  _238
REMARK   97  A    between atoms: _238  and  _239
REMARK   98  A    between atoms: _241  and  _243
REMARK   99  A    between atoms: _243  and  _244
REMARK  100  A    between atoms: _243  and  _246
REMARK  101  A    between atoms: _246  and  _247
REMARK  102  A    between atoms: _247  and  _248
REMARK  103  A    between atoms: _248  and  _249
REMARK  104  A    between atoms: _258  and  _260
REMARK  105  A    between atoms: _260  and  _261
REMARK  106  A    between atoms: _260  and  _263
REMARK  107  A    between atoms: _263  and  _264
REMARK  108  A    between atoms: _269  and  _271
REMARK  109  A    between atoms: _271  and  _272
REMARK  110  A    between atoms: _271  and  _274
REMARK  111  A    between atoms: _274  and  _275
REMARK  112  A    between atoms: _278  and  _280
REMARK  113  A    between atoms: _280  and  _281
REMARK  114  A    between atoms: _280  and  _283
REMARK  115  A    between atoms: _283  and  _284
REMARK  116  A    between atoms: _289  and  _291
REMARK  117  A    between atoms: _291  and  _292
REMARK  118  A    between atoms: _291  and  _294
REMARK  119  A    between atoms: _294  and  _295
REMARK  120  A    between atoms: _298  and  _300
REMARK  121  A    between atoms: _300  and  _301
REMARK  122  A    between atoms: _300  and  _303
REMARK  123  A    between atoms: _303  and  _304
REMARK  124  A    between atoms: _309  and  _311
REMARK  125  A    between atoms: _311  and  _312
REMARK  126  A    between atoms: _311  and  _314
REMARK  127  A    between atoms: _314  and  _315
REMARK  128  A    between atoms: _315  and  _316
REMARK  129  A    between atoms: _318  and  _320
REMARK  130  A    between atoms: _320  and  _321
REMARK  131  A    between atoms: _320  and  _323
REMARK  132  A    between atoms: _323  and  _324
REMARK  133  A    between atoms: _326  and  _328
REMARK  134  A    between atoms: _328  and  _329
REMARK  135  A    between atoms: _328  and  _331
REMARK  136  A    between atoms: _331  and  _332
REMARK  137  A    between atoms: _337  and  _338
REMARK  138  A    between atoms: _340  and  _342
REMARK  139  A    between atoms: _342  and  _343
REMARK  140  A    between atoms: _342  and  _345
REMARK  141  A    between atoms: _345  and  _346
REMARK  142  A    between atoms: _346  and  _347
REMARK  143  A    between atoms: _350  and  _352
REMARK  144  A    between atoms: _352  and  _353
REMARK  145  A    between atoms: _352  and  _355
REMARK  146  A    between atoms: _355  and  _356
REMARK  147  A    between atoms: _356  and  _357
REMARK  148  A    between atoms: _357  and  _358
REMARK  149  A    between atoms: _358  and  FE_414
REMARK  150  A    between atoms: _360  and  _362
REMARK  151  A    between atoms: _362  and  _363
REMARK  152  A    between atoms: _362  and  _365
REMARK  153  A    between atoms: _365  and  _366
REMARK  154  A    between atoms: _371  and  _373
REMARK  155  A    between atoms: _373  and  _374
REMARK  156  A    between atoms: _373  and  _376
REMARK  157  A    between atoms: _376  and  _377
REMARK  158  A    between atoms: _380  and  _381
REMARK  159  A    between atoms: _386  and  _388
REMARK  160  A    between atoms: _388  and  _389
REMARK  161  A    between atoms: _388  and  _391
REMARK  162  A    between atoms: _391  and  _392
REMARK  163  A    between atoms: _394  and  _396
REMARK  164  A    between atoms: _396  and  _397
REMARK  165  A    between atoms: _396  and  _399
REMARK  166  A    between atoms: _399  and  _400
REMARK  167  A    between atoms: _400  and  _401
REMARK  168  A    between atoms: _403  and  _405
REMARK  169  A    between atoms: _405  and  _406
REMARK  170  A    between atoms: _405  and  _408
REMARK  171  A    between atoms: _408  and  _409
REMARK                            x       y       z     vdW  Elec       q    Type
REMARK                         _______ _______ _______ _____ _____    ______ ____
ROOT
ATOM      1  C   HIS A   1      14.073  15.562  19.683  0.00  0.00    +0.239 C 
ATOM      2  O   HIS A   1      14.512  15.106  20.742  0.00  0.00    -0.274 OA
ATOM      3  N   HIS A   2      13.939  16.867  19.470  0.00  0.00    -0.298 N 
ATOM      4  H   HIS A   2      13.675  17.217  18.527  0.00  0.00    +0.150 HD
ENDROOT
BRANCH   1   5
ATOM      5  CA  HIS A   1      13.689  14.636  18.533  0.00  0.00    +0.151 C 
BRANCH   5   6
ATOM      6  N   HIS A   1      12.391  15.006  17.962  0.00  0.00    -0.238 NA
ATOM      7  H   HIS A   1      12.278  15.030  16.928  0.00  0.00    +0.142 HD
ENDBRANCH   5   6
BRANCH   5   8
ATOM      8  CB  HIS A   1      14.767  14.615  17.450  0.00  0.00    +0.074 C 
BRANCH   8   9
ATOM      9  CG  HIS A   1      16.135  14.336  17.982  0.00  0.00    +0.082 A 
ATOM     10  ND1 HIS A   1      16.940  15.325  18.505  0.00  0.00    -0.227 NA
ATOM     11  CE1 HIS A   1      18.064  14.788  18.944  0.00  0.00    +0.199 A 
ATOM     12  NE2 HIS A   1      18.018  13.487  18.724  0.00  0.00    -0.221 NA
ATOM     13  CD2 HIS A   1      16.822  13.178  18.120  0.00  0.00    +0.115 A 
ENDBRANCH   8   9
ENDBRANCH   5   8
ENDBRANCH   1   5
BRANCH   3  14
ATOM     14  CA  HIS A   2      14.163  17.804  20.559  0.00  0.00    +0.143 C 
BRANCH  14  15
ATOM     15  C   HIS A   2      13.289  19.036  20.410  0.00  0.00    +0.227 C 
ATOM     16  O   HIS A   2      13.060  19.527  19.305  0.00  0.00    -0.286 OA
ENDBRANCH  14  15
BRANCH  14  17
ATOM     17  CB  HIS A   2      15.650  18.205  20.743  0.00  0.00    +0.075 C 
BRANCH  17  18
ATOM     18  CG  HIS A   2      16.292  18.825  19.543  0.00  0.00    +0.082 A 
ATOM     19  CD2 HIS A   2      16.654  20.106  19.288  0.00  0.00    +0.115 A 
ATOM     20  NE2 HIS A   2      17.273  20.117  18.063  0.00  0.00    -0.221 NA
ATOM     21  CE1 HIS A   2      17.288  18.888  17.579  0.00  0.00    +0.199 A 
ATOM     22  ND1 HIS A   2      16.701  18.089  18.452  0.00  0.00    -0.227 NA
ENDBRANCH  17  18
ENDBRANCH  14  17
ENDBRANCH   3  14
TORSDOF 8
REMARK  Name = ../refined-set-2016/1lgt/1lgt_pocket.pdb
REMARK  171 active torsions:
REMARK  status: ('A' for Active; 'I' for Inactive)
REMARK    1  A    between atoms: _1  and  _3
REMARK    2  A    between atoms: _3  and  _4
REMARK    3  A    between atoms: _3  and  _6
REMARK    4  A    between atoms: _6  and  _7
REMARK    5  A    between atoms: _11  and  FE_414
REMARK    6  A    between atoms: _12  and  _14
REMARK    7  A    between atoms: _14  and  _15
REMARK    8  A    between atoms: _14  and  _17
REMARK    9  A    between atoms: _17  and  _18
REMARK   10  A    between atoms: _24  and  _26
REMARK   11  A    between atoms: _26  and  _27
REMARK   12  A    between atoms: _26  and  _29
REMARK   13  A    between atoms: _32  and  _34
REMARK   14  A    between atoms: _34  and  _35
REMARK   15  A    between atoms: _34  and  _37
REMARK   16  A    between atoms: _37  and  _38
REMARK   17  A    between atoms: _38  and  _39
REMARK   18  A    between atoms: _39  and  _40
REMARK   19  A    between atoms: _49  and  _51
REMARK   20  A    between atoms: _51  and  _52
REMARK   21  A    between atoms: _51  and  _54
REMARK   22  A    between atoms: _54  and  _55
REMARK   23  A    between atoms: _58  and  _60
REMARK   24  A    between atoms: _60  and  _61
REMARK   25  A    between atoms: _60  and  _63
REMARK   26  A    between atoms: _63  and  _64
REMARK   27  A    between atoms: _67  and  _69
REMARK   28  A    between atoms: _69  and  _70
REMARK   29  A    between atoms: _69  and  _72
REMARK   30  A    between atoms: _72  and  _73
REMARK   31  A    between atoms: _73  and  _74
REMARK   32  A    between atoms: _76  and  _78
REMARK   33  A    between atoms: _78  and  _79
REMARK   34  A    between atoms: _78  and  _81
REMARK   35  A    between atoms: _81  and  _82
REMARK   36  A    between atoms: _82  and  _83
REMARK   37  A    between atoms: _85  and  _87
REMARK   38  A    between atoms: _87  and  _88
REMARK   39  A    between atoms: _91  and  _93
REMARK   40  A    between atoms: _93  and  _94
REMARK   41  A    between atoms: _93  and  _96
REMARK   42  A    between atoms: _96  and  _97
REMARK   43  A    between atoms: _102  and  _103
REMARK   44  A    between atoms: _105  and  _107
REMARK   45  A    between atoms: _107  and  _108
REMARK   46  A    between atoms: _107  and  _110
REMARK   47  A    between atoms: _110  and  _111
REMARK   48  A    between atoms: _117  and  _119
REMARK   49  A    between atoms: _119  and  _120
REMARK   50  A    between atoms: _119  and  _122
REMARK   51  A    between atoms: _122  and  _123
REMARK   52  A    between atoms: _128  and  _130
REMARK   53  A    between atoms: _130  and  _131
REMARK   54  A    between atoms: _130  and  _133
REMARK   55  A    between atoms: _133  and  _134
REMARK   56  A    between atoms: _139  and  _141
REMARK   57  A    between atoms: _141  and  _142
REMARK   58  A    between atoms: _141  and  _144
REMARK   59  A    between atoms: _144  and  _145
REMARK   60  A    between atoms: _148  and  _150
REMARK   61  A    between atoms: _150  and  _151
REMARK   62  A    between atoms: _154  and  _156
REMARK   63  A    between atoms: _156  and  _157
REMARK   64  A    between atoms: _156  and  _159
REMARK   65  A    between atoms: _159  and  _160
REMARK   66  A    between atoms: _163  and  _165
REMARK   67  A    between atoms: _165  and  _166
REMARK   68  A    between atoms: _169  and  _171
REMARK   69  A    between atoms: _171  and  _172
REMARK   70  A    between atoms: _171  and  _174
REMARK   71  A    between atoms: _174  and  _175
REMARK   72  A    between atoms: _181  and  _183
REMARK   73  A    between atoms: _183  and  _184
REMARK   74  A    between atoms: _183  and  _186
REMARK   75  A    between atoms: _186  and  _187
REMARK   76  A    between atoms: _190  and  _192
REMARK   77  A    between atoms: _192  and  _193
REMARK   78  A    between atoms: _192  and  _195
REMARK   79  A    between atoms: _195  and  _196
REMARK   80  A    between atoms: _201  and  _203
REMARK   81  A    between atoms: _203  and  _204
REMARK   82  A    between atoms: _203  and  _206
REMARK   83  A    between atoms: _206  and  _207
REMARK   84  A    between atoms: _211  and  FE_414
REMARK   85  A    between atoms: _212  and  _214
REMARK   86  A    between atoms: _214  and  _215
REMARK   87  A    between atoms: _214  and  _217
REMARK   88  A    between atoms: _217  and  _218
REMARK   89  A    between atoms: _224  and  _226
REMARK   90  A    between atoms: _226  and  _227
REMARK   91  A    between atoms: _226  and  _229
REMARK   92  A    between atoms: _229  and  _230
REMARK   93  A    between atoms: _230  and  _231
REMARK   94  A    between atoms: _233  and  _235
REMARK   95  A    between atoms: _235  and  _236
REMARK   96  A    between atoms: _235  and  _238
REMARK   97  A    between atoms: _238  and  _239
REMARK   98  A    between atoms: _241  and  _243
REMARK   99  A    between atoms: _243  and  _244
REMARK  100  A    between atoms: _243  and  _246
REMARK  101  A    between atoms: _246  and  _247
REMARK  102  A    between atoms: _247  and  _248
REMARK  103  A    between atoms: _248  and  _249
REMARK  104  A    between atoms: _258  and  _260
REMARK  105  A    between atoms: _260  and  _261
REMARK  106  A    between atoms: _260  and  _263
REMARK  107  A    between atoms: _263  and  _264
REMARK  108  A    between atoms: _269  and  _271
REMARK  109  A    between atoms: _271  and  _272
REMARK  110  A    between atoms: _271  and  _274
REMARK  111  A    between atoms: _274  and  _275
REMARK  112  A    between atoms: _278  and  _280
REMARK  113  A    between atoms: _280  and  _281
REMARK  114  A    between atoms: _280  and  _283
REMARK  115  A    between atoms: _283  and  _284
REMARK  116  A    between atoms: _289  and  _291
REMARK  117  A    between atoms: _291  and  _292
REMARK  118  A    between atoms: _291  and  _294
REMARK  119  A    between atoms: _294  and  _295
REMARK  120  A    between atoms: _298  and  _300
REMARK  121  A    between atoms: _300  and  _301
REMARK  122  A    between atoms: _300  and  _303
REMARK  123  A    between atoms: _303  and  _304
REMARK  124  A    between atoms: _309  and  _311
REMARK  125  A    between atoms: _311  and  _312
REMARK  126  A    between atoms: _311  and  _314
REMARK  127  A    between atoms: _314  and  _315
REMARK  128  A    between atoms: _315  and  _316
REMARK  129  A    between atoms: _318  and  _320
REMARK  130  A    between atoms: _320  and  _321
REMARK  131  A    between atoms: _320  and  _323
REMARK  132  A    between atoms: _323  and  _324
REMARK  133  A    between atoms: _326  and  _328
REMARK  134  A    between atoms: _328  and  _329
REMARK  135  A    between atoms: _328  and  _331
REMARK  136  A    between atoms: _331  and  _332
REMARK  137  A    between atoms: _337  and  _338
REMARK  138  A    between atoms: _340  and  _342
REMARK  139  A    between atoms: _342  and  _343
REMARK  140  A    between atoms: _342  and  _345
REMARK  141  A    between atoms: _345  and  _346
REMARK  142  A    between atoms: _346  and  _347
REMARK  143  A    between atoms: _350  and  _352
REMARK  144  A    between atoms: _352  and  _353
REMARK  145  A    between atoms: _352  and  _355
REMARK  146  A    between atoms: _355  and  _356
REMARK  147  A    between atoms: _356  and  _357
REMARK  148  A    between atoms: _357  and  _358
REMARK  149  A    between atoms: _358  and  FE_414
REMARK  150  A    between atoms: _360  and  _362
REMARK  151  A    between atoms: _362  and  _363
REMARK  152  A    between atoms: _362  and  _365
REMARK  153  A    between atoms: _365  and  _366
REMARK  154  A    between atoms: _371  and  _373
REMARK  155  A    between atoms: _373  and  _374
REMARK  156  A    between atoms: _373  and  _376
REMARK  157  A    between atoms: _376  and  _377
REMARK  158  A    between atoms: _380  and  _381
REMARK  159  A    between atoms: _386  and  _388
REMARK  160  A    between atoms: _388  and  _389
REMARK  161  A    between atoms: _388  and  _391
REMARK  162  A    between atoms: _391  and  _392
REMARK  163  A    between atoms: _394  and  _396
REMARK  164  A    between atoms: _396  and  _397
REMARK  165  A    between atoms: _396  and  _399
REMARK  166  A    between atoms: _399  and  _400
REMARK  167  A    between atoms: _400  and  _401
REMARK  168  A    between atoms: _403  and  _405
REMARK  169  A    between atoms: _405  and  _406
REMARK  170  A    between atoms: _405  and  _408
REMARK  171  A    between atoms: _408  and  _409
REMARK                            x       y       z     vdW  Elec       q    Type
REMARK                         _______ _______ _______ _____ _____    ______ ____
ROOT
ATOM      1  C   ALA A   2      19.091  23.031  24.688  0.00  0.00    +0.241 C 
ATOM      2  N   ILE A   3      20.115  22.576  25.402  0.00  0.00    -0.297 N 
ATOM      3  H   ILE A   3      20.466  21.613  25.223  0.00  0.00    +0.150 HD
ATOM      4  O   ALA A   2      18.614  24.155  24.839  0.00  0.00    -0.273 OA
ENDROOT
BRANCH   1   5
ATOM      5  CA  ALA A   2      18.490  22.080  23.660  0.00  0.00    +0.149 C 
ATOM      6  CB  ALA A   2      19.174  22.246  22.311  0.00  0.00    +0.031 C 
BRANCH   5   9
ATOM      7  C   LEU A   1      16.103  21.608  23.753  0.00  0.00    +0.238 C 
ATOM      8  O   LEU A   1      16.290  20.401  23.913  0.00  0.00    -0.274 OA
ATOM      9  N   ALA A   2      17.092  22.480  23.586  0.00  0.00    -0.297 N 
ATOM     10  H   ALA A   2      16.861  23.476  23.397  0.00  0.00    +0.150 HD
BRANCH   7  11
ATOM     11  CA  LEU A   1      14.693  22.178  23.720  0.00  0.00    +0.145 C 
BRANCH  11  12
ATOM     12  N   LEU A   1      13.801  21.281  23.001  0.00  0.00    -0.238 NA
ATOM     13  H   LEU A   1      13.978  20.257  23.031  0.00  0.00    +0.142 HD
ENDBRANCH  11  12
BRANCH  11  14
ATOM     14  CB  LEU A   1      14.197  22.357  25.157  0.00  0.00    +0.026 C 
BRANCH  14  15
ATOM     15  CG  LEU A   1      15.073  23.155  26.129  0.00  0.00    +0.002 C 
ATOM     16  CD2 LEU A   1      14.556  22.963  27.537  0.00  0.00    +0.000 C 
ATOM     17  CD1 LEU A   1      15.050  24.626  25.769  0.00  0.00    +0.000 C 
ENDBRANCH  14  15
ENDBRANCH  11  14
ENDBRANCH   7  11
ENDBRANCH   5   9
ENDBRANCH   1   5
BRANCH   2  18
ATOM     18  CA  ILE A   3      20.764  23.387  26.431  0.00  0.00    +0.149 C 
BRANCH  18  19
ATOM     19  C   ILE A   3      22.274  23.333  26.222  0.00  0.00    +0.241 C 
ATOM     20  N   ALA A   4      22.927  24.494  26.231  0.00  0.00    -0.298 N 
ATOM     21  H   ALA A   4      22.397  25.378  26.371  0.00  0.00    +0.150 HD
ATOM     22  O   ILE A   3      22.835  22.252  26.048  0.00  0.00    -0.273 OA
BRANCH  20  23
ATOM     23  CA  ALA A   4      24.375  24.546  26.048  0.00  0.00    +0.137 C 
ATOM     24  CB  ALA A   4      24.720  24.459  24.565  0.00  0.00    +0.030 C 
BRANCH  23  25
ATOM     25  C   ALA A   4      24.961  25.821  26.643  0.00  0.00    +0.227 C 
ATOM     26  O   ALA A   4      24.291  26.852  26.716  0.00  0.00    -0.286 OA
ENDBRANCH  23  25
ENDBRANCH  20  23
ENDBRANCH  18  19
BRANCH  18  27
ATOM     27  CB  ILE A   3      20.437  22.840  27.842  0.00  0.00    +0.027 C 
ATOM     28  CG2 ILE A   3      21.179  23.644  28.910  0.00  0.00    +0.002 C 
BRANCH  27  29
ATOM     29  CG1 ILE A   3      18.925  22.890  28.085  0.00  0.00    +0.002 C 
ATOM     30  CD1 ILE A   3      18.479  22.155  29.336  0.00  0.00    +0.000 C 
ENDBRANCH  27  29
ENDBRANCH  18  27
ENDBRANCH   2  18
TORSDOF 12
REMARK  Name = ../refined-set-2016/1lgt/1lgt_pocket.pdb
REMARK  171 active torsions:
REMARK  status: ('A' for Active; 'I' for Inactive)
REMARK    1  A    between atoms: _1  and  _3
REMARK    2  A    between atoms: _3  and  _4
REMARK    3  A    between atoms: _3  and  _6
REMARK    4  A    between atoms: _6  and  _7
REMARK    5  A    between atoms: _11  and  FE_414
REMARK    6  A    between atoms: _12  and  _14
REMARK    7  A    between atoms: _14  and  _15
REMARK    8  A    between atoms: _14  and  _17
REMARK    9  A    between atoms: _17  and  _18
REMARK   10  A    between atoms: _24  and  _26
REMARK   11  A    between atoms: _26  and  _27
REMARK   12  A    between atoms: _26  and  _29
REMARK   13  A    between atoms: _32  and  _34
REMARK   14  A    between atoms: _34  and  _35
REMARK   15  A    between atoms: _34  and  _37
REMARK   16  A    between atoms: _37  and  _38
REMARK   17  A    between atoms: _38  and  _39
REMARK   18  A    between atoms: _39  and  _40
REMARK   19  A    between atoms: _49  and  _51
REMARK   20  A    between atoms: _51  and  _52
REMARK   21  A    between atoms: _51  and  _54
REMARK   22  A    between atoms: _54  and  _55
REMARK   23  A    between atoms: _58  and  _60
REMARK   24  A    between atoms: _60  and  _61
REMARK   25  A    between atoms: _60  and  _63
REMARK   26  A    between atoms: _63  and  _64
REMARK   27  A    between atoms: _67  and  _69
REMARK   28  A    between atoms: _69  and  _70
REMARK   29  A    between atoms: _69  and  _72
REMARK   30  A    between atoms: _72  and  _73
REMARK   31  A    between atoms: _73  and  _74
REMARK   32  A    between atoms: _76  and  _78
REMARK   33  A    between atoms: _78  and  _79
REMARK   34  A    between atoms: _78  and  _81
REMARK   35  A    between atoms: _81  and  _82
REMARK   36  A    between atoms: _82  and  _83
REMARK   37  A    between atoms: _85  and  _87
REMARK   38  A    between atoms: _87  and  _88
REMARK   39  A    between atoms: _91  and  _93
REMARK   40  A    between atoms: _93  and  _94
REMARK   41  A    between atoms: _93  and  _96
REMARK   42  A    between atoms: _96  and  _97
REMARK   43  A    between atoms: _102  and  _103
REMARK   44  A    between atoms: _105  and  _107
REMARK   45  A    between atoms: _107  and  _108
REMARK   46  A    between atoms: _107  and  _110
REMARK   47  A    between atoms: _110  and  _111
REMARK   48  A    between atoms: _117  and  _119
REMARK   49  A    between atoms: _119  and  _120
REMARK   50  A    between atoms: _119  and  _122
REMARK   51  A    between atoms: _122  and  _123
REMARK   52  A    between atoms: _128  and  _130
REMARK   53  A    between atoms: _130  and  _131
REMARK   54  A    between atoms: _130  and  _133
REMARK   55  A    between atoms: _133  and  _134
REMARK   56  A    between atoms: _139  and  _141
REMARK   57  A    between atoms: _141  and  _142
REMARK   58  A    between atoms: _141  and  _144
REMARK   59  A    between atoms: _144  and  _145
REMARK   60  A    between atoms: _148  and  _150
REMARK   61  A    between atoms: _150  and  _151
REMARK   62  A    between atoms: _154  and  _156
REMARK   63  A    between atoms: _156  and  _157
REMARK   64  A    between atoms: _156  and  _159
REMARK   65  A    between atoms: _159  and  _160
REMARK   66  A    between atoms: _163  and  _165
REMARK   67  A    between atoms: _165  and  _166
REMARK   68  A    between atoms: _169  and  _171
REMARK   69  A    between atoms: _171  and  _172
REMARK   70  A    between atoms: _171  and  _174
REMARK   71  A    between atoms: _174  and  _175
REMARK   72  A    between atoms: _181  and  _183
REMARK   73  A    between atoms: _183  and  _184
REMARK   74  A    between atoms: _183  and  _186
REMARK   75  A    between atoms: _186  and  _187
REMARK   76  A    between atoms: _190  and  _192
REMARK   77  A    between atoms: _192  and  _193
REMARK   78  A    between atoms: _192  and  _195
REMARK   79  A    between atoms: _195  and  _196
REMARK   80  A    between atoms: _201  and  _203
REMARK   81  A    between atoms: _203  and  _204
REMARK   82  A    between atoms: _203  and  _206
REMARK   83  A    between atoms: _206  and  _207
REMARK   84  A    between atoms: _211  and  FE_414
REMARK   85  A    between atoms: _212  and  _214
REMARK   86  A    between atoms: _214  and  _215
REMARK   87  A    between atoms: _214  and  _217
REMARK   88  A    between atoms: _217  and  _218
REMARK   89  A    between atoms: _224  and  _226
REMARK   90  A    between atoms: _226  and  _227
REMARK   91  A    between atoms: _226  and  _229
REMARK   92  A    between atoms: _229  and  _230
REMARK   93  A    between atoms: _230  and  _231
REMARK   94  A    between atoms: _233  and  _235
REMARK   95  A    between atoms: _235  and  _236
REMARK   96  A    between atoms: _235  and  _238
REMARK   97  A    between atoms: _238  and  _239
REMARK   98  A    between atoms: _241  and  _243
REMARK   99  A    between atoms: _243  and  _244
REMARK  100  A    between atoms: _243  and  _246
REMARK  101  A    between atoms: _246  and  _247
REMARK  102  A    between atoms: _247  and  _248
REMARK  103  A    between atoms: _248  and  _249
REMARK  104  A    between atoms: _258  and  _260
REMARK  105  A    between atoms: _260  and  _261
REMARK  106  A    between atoms: _260  and  _263
REMARK  107  A    between atoms: _263  and  _264
REMARK  108  A    between atoms: _269  and  _271
REMARK  109  A    between atoms: _271  and  _272
REMARK  110  A    between atoms: _271  and  _274
REMARK  111  A    between atoms: _274  and  _275
REMARK  112  A    between atoms: _278  and  _280
REMARK  113  A    between atoms: _280  and  _281
REMARK  114  A    between atoms: _280  and  _283
REMARK  115  A    between atoms: _283  and  _284
REMARK  116  A    between atoms: _289  and  _291
REMARK  117  A    between atoms: _291  and  _292
REMARK  118  A    between atoms: _291  and  _294
REMARK  119  A    between atoms: _294  and  _295
REMARK  120  A    between atoms: _298  and  _300
REMARK  121  A    between atoms: _300  and  _301
REMARK  122  A    between atoms: _300  and  _303
REMARK  123  A    between atoms: _303  and  _304
REMARK  124  A    between atoms: _309  and  _311
REMARK  125  A    between atoms: _311  and  _312
REMARK  126  A    between atoms: _311  and  _314
REMARK  127  A    between atoms: _314  and  _315
REMARK  128  A    between atoms: _315  and  _316
REMARK  129  A    between atoms: _318  and  _320
REMARK  130  A    between atoms: _320  and  _321
REMARK  131  A    between atoms: _320  and  _323
REMARK  132  A    between atoms: _323  and  _324
REMARK  133  A    between atoms: _326  and  _328
REMARK  134  A    between atoms: _328  and  _329
REMARK  135  A    between atoms: _328  and  _331
REMARK  136  A    between atoms: _331  and  _332
REMARK  137  A    between atoms: _337  and  _338
REMARK  138  A    between atoms: _340  and  _342
REMARK  139  A    between atoms: _342  and  _343
REMARK  140  A    between atoms: _342  and  _345
REMARK  141  A    between atoms: _345  and  _346
REMARK  142  A    between atoms: _346  and  _347
REMARK  143  A    between atoms: _350  and  _352
REMARK  144  A    between atoms: _352  and  _353
REMARK  145  A    between atoms: _352  and  _355
REMARK  146  A    between atoms: _355  and  _356
REMARK  147  A    between atoms: _356  and  _357
REMARK  148  A    between atoms: _357  and  _358
REMARK  149  A    between atoms: _358  and  FE_414
REMARK  150  A    between atoms: _360  and  _362
REMARK  151  A    between atoms: _362  and  _363
REMARK  152  A    between atoms: _362  and  _365
REMARK  153  A    between atoms: _365  and  _366
REMARK  154  A    between atoms: _371  and  _373
REMARK  155  A    between atoms: _373  and  _374
REMARK  156  A    between atoms: _373  and  _376
REMARK  157  A    between atoms: _376  and  _377
REMARK  158  A    between atoms: _380  and  _381
REMARK  159  A    between atoms: _386  and  _388
REMARK  160  A    between atoms: _388  and  _389
REMARK  161  A    between atoms: _388  and  _391
REMARK  162  A    between atoms: _391  and  _392
REMARK  163  A    between atoms: _394  and  _396
REMARK  164  A    between atoms: _396  and  _397
REMARK  165  A    between atoms: _396  and  _399
REMARK  166  A    between atoms: _399  and  _400
REMARK  167  A    between atoms: _400  and  _401
REMARK  168  A    between atoms: _403  and  _405
REMARK  169  A    between atoms: _405  and  _406
REMARK  170  A    between atoms: _405  and  _408
REMARK  171  A    between atoms: _408  and  _409
REMARK                            x       y       z     vdW  Elec       q    Type
REMARK                         _______ _______ _______ _____ _____    ______ ____
ROOT
ATOM      1  CB  PHE A   1      26.776  29.047  23.300  0.00  0.00    +0.051 C 
ENDROOT
BRANCH   1   2
ATOM      2  CG  PHE A   1      26.518  27.701  22.683  0.00  0.00    -0.020 A 
ATOM      3  CD2 PHE A   1      27.533  26.755  22.587  0.00  0.00    -0.004 A 
ATOM      4  CE2 PHE A   1      27.305  25.523  21.971  0.00  0.00    -0.000 A 
ATOM      5  CZ  PHE A   1      26.051  25.232  21.446  0.00  0.00    -0.000 A 
ATOM      6  CE1 PHE A   1      25.027  26.169  21.538  0.00  0.00    -0.000 A 
ATOM      7  CD1 PHE A   1      25.265  27.397  22.155  0.00  0.00    -0.004 A 
ENDBRANCH   1   2
BRANCH   1   8
ATOM      8  CA  PHE A   1      27.665  29.010  24.552  0.00  0.00    +0.137 C 
BRANCH   8   9
ATOM      9  N   PHE A   1      27.016  28.287  25.645  0.00  0.00    -0.239 NA
ATOM     10  H   PHE A   1      25.978  28.306  25.714  0.00  0.00    +0.142 HD
ENDBRANCH   8   9
BRANCH   8  11
ATOM     11  C   PHE A   1      27.952  30.449  24.960  0.00  0.00    +0.224 C 
ATOM     12  O   PHE A   1      27.207  31.040  25.740  0.00  0.00    -0.287 OA
ENDBRANCH   8  11
ENDBRANCH   1   8
TORSDOF 4
REMARK  Name = ../refined-set-2016/1lgt/1lgt_pocket.pdb
REMARK  171 active torsions:
REMARK  status: ('A' for Active; 'I' for Inactive)
REMARK    1  A    between atoms: _1  and  _3
REMARK    2  A    between atoms: _3  and  _4
REMARK    3  A    between atoms: _3  and  _6
REMARK    4  A    between atoms: _6  and  _7
REMARK    5  A    between atoms: _11  and  FE_414
REMARK    6  A    between atoms: _12  and  _14
REMARK    7  A    between atoms: _14  and  _15
REMARK    8  A    between atoms: _14  and  _17
REMARK    9  A    between atoms: _17  and  _18
REMARK   10  A    between atoms: _24  and  _26
REMARK   11  A    between atoms: _26  and  _27
REMARK   12  A    between atoms: _26  and  _29
REMARK   13  A    between atoms: _32  and  _34
REMARK   14  A    between atoms: _34  and  _35
REMARK   15  A    between atoms: _34  and  _37
REMARK   16  A    between atoms: _37  and  _38
REMARK   17  A    between atoms: _38  and  _39
REMARK   18  A    between atoms: _39  and  _40
REMARK   19  A    between atoms: _49  and  _51
REMARK   20  A    between atoms: _51  and  _52
REMARK   21  A    between atoms: _51  and  _54
REMARK   22  A    between atoms: _54  and  _55
REMARK   23  A    between atoms: _58  and  _60
REMARK   24  A    between atoms: _60  and  _61
REMARK   25  A    between atoms: _60  and  _63
REMARK   26  A    between atoms: _63  and  _64
REMARK   27  A    between atoms: _67  and  _69
REMARK   28  A    between atoms: _69  and  _70
REMARK   29  A    between atoms: _69  and  _72
REMARK   30  A    between atoms: _72  and  _73
REMARK   31  A    between atoms: _73  and  _74
REMARK   32  A    between atoms: _76  and  _78
REMARK   33  A    between atoms: _78  and  _79
REMARK   34  A    between atoms: _78  and  _81
REMARK   35  A    between atoms: _81  and  _82
REMARK   36  A    between atoms: _82  and  _83
REMARK   37  A    between atoms: _85  and  _87
REMARK   38  A    between atoms: _87  and  _88
REMARK   39  A    between atoms: _91  and  _93
REMARK   40  A    between atoms: _93  and  _94
REMARK   41  A    between atoms: _93  and  _96
REMARK   42  A    between atoms: _96  and  _97
REMARK   43  A    between atoms: _102  and  _103
REMARK   44  A    between atoms: _105  and  _107
REMARK   45  A    between atoms: _107  and  _108
REMARK   46  A    between atoms: _107  and  _110
REMARK   47  A    between atoms: _110  and  _111
REMARK   48  A    between atoms: _117  and  _119
REMARK   49  A    between atoms: _119  and  _120
REMARK   50  A    between atoms: _119  and  _122
REMARK   51  A    between atoms: _122  and  _123
REMARK   52  A    between atoms: _128  and  _130
REMARK   53  A    between atoms: _130  and  _131
REMARK   54  A    between atoms: _130  and  _133
REMARK   55  A    between atoms: _133  and  _134
REMARK   56  A    between atoms: _139  and  _141
REMARK   57  A    between atoms: _141  and  _142
REMARK   58  A    between atoms: _141  and  _144
REMARK   59  A    between atoms: _144  and  _145
REMARK   60  A    between atoms: _148  and  _150
REMARK   61  A    between atoms: _150  and  _151
REMARK   62  A    between atoms: _154  and  _156
REMARK   63  A    between atoms: _156  and  _157
REMARK   64  A    between atoms: _156  and  _159
REMARK   65  A    between atoms: _159  and  _160
REMARK   66  A    between atoms: _163  and  _165
REMARK   67  A    between atoms: _165  and  _166
REMARK   68  A    between atoms: _169  and  _171
REMARK   69  A    between atoms: _171  and  _172
REMARK   70  A    between atoms: _171  and  _174
REMARK   71  A    between atoms: _174  and  _175
REMARK   72  A    between atoms: _181  and  _183
REMARK   73  A    between atoms: _183  and  _184
REMARK   74  A    between atoms: _183  and  _186
REMARK   75  A    between atoms: _186  and  _187
REMARK   76  A    between atoms: _190  and  _192
REMARK   77  A    between atoms: _192  and  _193
REMARK   78  A    between atoms: _192  and  _195
REMARK   79  A    between atoms: _195  and  _196
REMARK   80  A    between atoms: _201  and  _203
REMARK   81  A    between atoms: _203  and  _204
REMARK   82  A    between atoms: _203  and  _206
REMARK   83  A    between atoms: _206  and  _207
REMARK   84  A    between atoms: _211  and  FE_414
REMARK   85  A    between atoms: _212  and  _214
REMARK   86  A    between atoms: _214  and  _215
REMARK   87  A    between atoms: _214  and  _217
REMARK   88  A    between atoms: _217  and  _218
REMARK   89  A    between atoms: _224  and  _226
REMARK   90  A    between atoms: _226  and  _227
REMARK   91  A    between atoms: _226  and  _229
REMARK   92  A    between atoms: _229  and  _230
REMARK   93  A    between atoms: _230  and  _231
REMARK   94  A    between atoms: _233  and  _235
REMARK   95  A    between atoms: _235  and  _236
REMARK   96  A    between atoms: _235  and  _238
REMARK   97  A    between atoms: _238  and  _239
REMARK   98  A    between atoms: _241  and  _243
REMARK   99  A    between atoms: _243  and  _244
REMARK  100  A    between atoms: _243  and  _246
REMARK  101  A    between atoms: _246  and  _247
REMARK  102  A    between atoms: _247  and  _248
REMARK  103  A    between atoms: _248  and  _249
REMARK  104  A    between atoms: _258  and  _260
REMARK  105  A    between atoms: _260  and  _261
REMARK  106  A    between atoms: _260  and  _263
REMARK  107  A    between atoms: _263  and  _264
REMARK  108  A    between atoms: _269  and  _271
REMARK  109  A    between atoms: _271  and  _272
REMARK  110  A    between atoms: _271  and  _274
REMARK  111  A    between atoms: _274  and  _275
REMARK  112  A    between atoms: _278  and  _280
REMARK  113  A    between atoms: _280  and  _281
REMARK  114  A    between atoms: _280  and  _283
REMARK  115  A    between atoms: _283  and  _284
REMARK  116  A    between atoms: _289  and  _291
REMARK  117  A    between atoms: _291  and  _292
REMARK  118  A    between atoms: _291  and  _294
REMARK  119  A    between atoms: _294  and  _295
REMARK  120  A    between atoms: _298  and  _300
REMARK  121  A    between atoms: _300  and  _301
REMARK  122  A    between atoms: _300  and  _303
REMARK  123  A    between atoms: _303  and  _304
REMARK  124  A    between atoms: _309  and  _311
REMARK  125  A    between atoms: _311  and  _312
REMARK  126  A    between atoms: _311  and  _314
REMARK  127  A    between atoms: _314  and  _315
REMARK  128  A    between atoms: _315  and  _316
REMARK  129  A    between atoms: _318  and  _320
REMARK  130  A    between atoms: _320  and  _321
REMARK  131  A    between atoms: _320  and  _323
REMARK  132  A    between atoms: _323  and  _324
REMARK  133  A    between atoms: _326  and  _328
REMARK  134  A    between atoms: _328  and  _329
REMARK  135  A    between atoms: _328  and  _331
REMARK  136  A    between atoms: _331  and  _332
REMARK  137  A    between atoms: _337  and  _338
REMARK  138  A    between atoms: _340  and  _342
REMARK  139  A    between atoms: _342  and  _343
REMARK  140  A    between atoms: _342  and  _345
REMARK  141  A    between atoms: _345  and  _346
REMARK  142  A    between atoms: _346  and  _347
REMARK  143  A    between atoms: _350  and  _352
REMARK  144  A    between atoms: _352  and  _353
REMARK  145  A    between atoms: _352  and  _355
REMARK  146  A    between atoms: _355  and  _356
REMARK  147  A    between atoms: _356  and  _357
REMARK  148  A    between atoms: _357  and  _358
REMARK  149  A    between atoms: _358  and  FE_414
REMARK  150  A    between atoms: _360  and  _362
REMARK  151  A    between atoms: _362  and  _363
REMARK  152  A    between atoms: _362  and  _365
REMARK  153  A    between atoms: _365  and  _366
REMARK  154  A    between atoms: _371  and  _373
REMARK  155  A    between atoms: _373  and  _374
REMARK  156  A    between atoms: _373  and  _376
REMARK  157  A    between atoms: _376  and  _377
REMARK  158  A    between atoms: _380  and  _381
REMARK  159  A    between atoms: _386  and  _388
REMARK  160  A    between atoms: _388  and  _389
REMARK  161  A    between atoms: _388  and  _391
REMARK  162  A    between atoms: _391  and  _392
REMARK  163  A    between atoms: _394  and  _396
REMARK  164  A    between atoms: _396  and  _397
REMARK  165  A    between atoms: _396  and  _399
REMARK  166  A    between atoms: _399  and  _400
REMARK  167  A    between atoms: _400  and  _401
REMARK  168  A    between atoms: _403  and  _405
REMARK  169  A    between atoms: _405  and  _406
REMARK  170  A    between atoms: _405  and  _408
REMARK  171  A    between atoms: _408  and  _409
REMARK                            x       y       z     vdW  Elec       q    Type
REMARK                         _______ _______ _______ _____ _____    ______ ____
ROOT
ATOM      1  CA  LEU A   1      26.393  34.363  23.420  0.00  0.00    +0.133 C 
ENDROOT
BRANCH   1   2
ATOM      2  N   LEU A   1      27.296  33.460  24.132  0.00  0.00    -0.239 NA
ATOM      3  H   LEU A   1      26.895  32.816  24.843  0.00  0.00    +0.142 HD
ENDBRANCH   1   2
BRANCH   1   4
ATOM      4  C   LEU A   1      25.660  35.254  24.420  0.00  0.00    +0.224 C 
ATOM      5  O   LEU A   1      25.270  34.802  25.493  0.00  0.00    -0.287 OA
ENDBRANCH   1   4
BRANCH   1   6
ATOM      6  CB  LEU A   1      25.382  33.555  22.601  0.00  0.00    +0.025 C 
BRANCH   6   7
ATOM      7  CG  LEU A   1      25.991  32.681  21.501  0.00  0.00    +0.002 C 
ATOM      8  CD2 LEU A   1      24.924  31.763  20.930  0.00  0.00    +0.000 C 
ATOM      9  CD1 LEU A   1      26.590  33.558  20.412  0.00  0.00    +0.000 C 
ENDBRANCH   6   7
ENDBRANCH   1   6
TORSDOF 4
REMARK  Name = ../refined-set-2016/1lgt/1lgt_pocket.pdb
REMARK  171 active torsions:
REMARK  status: ('A' for Active; 'I' for Inactive)
REMARK    1  A    between atoms: _1  and  _3
REMARK    2  A    between atoms: _3  and  _4
REMARK    3  A    between atoms: _3  and  _6
REMARK    4  A    between atoms: _6  and  _7
REMARK    5  A    between atoms: _11  and  FE_414
REMARK    6  A    between atoms: _12  and  _14
REMARK    7  A    between atoms: _14  and  _15
REMARK    8  A    between atoms: _14  and  _17
REMARK    9  A    between atoms: _17  and  _18
REMARK   10  A    between atoms: _24  and  _26
REMARK   11  A    between atoms: _26  and  _27
REMARK   12  A    between atoms: _26  and  _29
REMARK   13  A    between atoms: _32  and  _34
REMARK   14  A    between atoms: _34  and  _35
REMARK   15  A    between atoms: _34  and  _37
REMARK   16  A    between atoms: _37  and  _38
REMARK   17  A    between atoms: _38  and  _39
REMARK   18  A    between atoms: _39  and  _40
REMARK   19  A    between atoms: _49  and  _51
REMARK   20  A    between atoms: _51  and  _52
REMARK   21  A    between atoms: _51  and  _54
REMARK   22  A    between atoms: _54  and  _55
REMARK   23  A    between atoms: _58  and  _60
REMARK   24  A    between atoms: _60  and  _61
REMARK   25  A    between atoms: _60  and  _63
REMARK   26  A    between atoms: _63  and  _64
REMARK   27  A    between atoms: _67  and  _69
REMARK   28  A    between atoms: _69  and  _70
REMARK   29  A    between atoms: _69  and  _72
REMARK   30  A    between atoms: _72  and  _73
REMARK   31  A    between atoms: _73  and  _74
REMARK   32  A    between atoms: _76  and  _78
REMARK   33  A    between atoms: _78  and  _79
REMARK   34  A    between atoms: _78  and  _81
REMARK   35  A    between atoms: _81  and  _82
REMARK   36  A    between atoms: _82  and  _83
REMARK   37  A    between atoms: _85  and  _87
REMARK   38  A    between atoms: _87  and  _88
REMARK   39  A    between atoms: _91  and  _93
REMARK   40  A    between atoms: _93  and  _94
REMARK   41  A    between atoms: _93  and  _96
REMARK   42  A    between atoms: _96  and  _97
REMARK   43  A    between atoms: _102  and  _103
REMARK   44  A    between atoms: _105  and  _107
REMARK   45  A    between atoms: _107  and  _108
REMARK   46  A    between atoms: _107  and  _110
REMARK   47  A    between atoms: _110  and  _111
REMARK   48  A    between atoms: _117  and  _119
REMARK   49  A    between atoms: _119  and  _120
REMARK   50  A    between atoms: _119  and  _122
REMARK   51  A    between atoms: _122  and  _123
REMARK   52  A    between atoms: _128  and  _130
REMARK   53  A    between atoms: _130  and  _131
REMARK   54  A    between atoms: _130  and  _133
REMARK   55  A    between atoms: _133  and  _134
REMARK   56  A    between atoms: _139  and  _141
REMARK   57  A    between atoms: _141  and  _142
REMARK   58  A    between atoms: _141  and  _144
REMARK   59  A    between atoms: _144  and  _145
REMARK   60  A    between atoms: _148  and  _150
REMARK   61  A    between atoms: _150  and  _151
REMARK   62  A    between atoms: _154  and  _156
REMARK   63  A    between atoms: _156  and  _157
REMARK   64  A    between atoms: _156  and  _159
REMARK   65  A    between atoms: _159  and  _160
REMARK   66  A    between atoms: _163  and  _165
REMARK   67  A    between atoms: _165  and  _166
REMARK   68  A    between atoms: _169  and  _171
REMARK   69  A    between atoms: _171  and  _172
REMARK   70  A    between atoms: _171  and  _174
REMARK   71  A    between atoms: _174  and  _175
REMARK   72  A    between atoms: _181  and  _183
REMARK   73  A    between atoms: _183  and  _184
REMARK   74  A    between atoms: _183  and  _186
REMARK   75  A    between atoms: _186  and  _187
REMARK   76  A    between atoms: _190  and  _192
REMARK   77  A    between atoms: _192  and  _193
REMARK   78  A    between atoms: _192  and  _195
REMARK   79  A    between atoms: _195  and  _196
REMARK   80  A    between atoms: _201  and  _203
REMARK   81  A    between atoms: _203  and  _204
REMARK   82  A    between atoms: _203  and  _206
REMARK   83  A    between atoms: _206  and  _207
REMARK   84  A    between atoms: _211  and  FE_414
REMARK   85  A    between atoms: _212  and  _214
REMARK   86  A    between atoms: _214  and  _215
REMARK   87  A    between atoms: _214  and  _217
REMARK   88  A    between atoms: _217  and  _218
REMARK   89  A    between atoms: _224  and  _226
REMARK   90  A    between atoms: _226  and  _227
REMARK   91  A    between atoms: _226  and  _229
REMARK   92  A    between atoms: _229  and  _230
REMARK   93  A    between atoms: _230  and  _231
REMARK   94  A    between atoms: _233  and  _235
REMARK   95  A    between atoms: _235  and  _236
REMARK   96  A    between atoms: _235  and  _238
REMARK   97  A    between atoms: _238  and  _239
REMARK   98  A    between atoms: _241  and  _243
REMARK   99  A    between atoms: _243  and  _244
REMARK  100  A    between atoms: _243  and  _246
REMARK  101  A    between atoms: _246  and  _247
REMARK  102  A    between atoms: _247  and  _248
REMARK  103  A    between atoms: _248  and  _249
REMARK  104  A    between atoms: _258  and  _260
REMARK  105  A    between atoms: _260  and  _261
REMARK  106  A    between atoms: _260  and  _263
REMARK  107  A    between atoms: _263  and  _264
REMARK  108  A    between atoms: _269  and  _271
REMARK  109  A    between atoms: _271  and  _272
REMARK  110  A    between atoms: _271  and  _274
REMARK  111  A    between atoms: _274  and  _275
REMARK  112  A    between atoms: _278  and  _280
REMARK  113  A    between atoms: _280  and  _281
REMARK  114  A    between atoms: _280  and  _283
REMARK  115  A    between atoms: _283  and  _284
REMARK  116  A    between atoms: _289  and  _291
REMARK  117  A    between atoms: _291  and  _292
REMARK  118  A    between atoms: _291  and  _294
REMARK  119  A    between atoms: _294  and  _295
REMARK  120  A    between atoms: _298  and  _300
REMARK  121  A    between atoms: _300  and  _301
REMARK  122  A    between atoms: _300  and  _303
REMARK  123  A    between atoms: _303  and  _304
REMARK  124  A    between atoms: _309  and  _311
REMARK  125  A    between atoms: _311  and  _312
REMARK  126  A    between atoms: _311  and  _314
REMARK  127  A    between atoms: _314  and  _315
REMARK  128  A    between atoms: _315  and  _316
REMARK  129  A    between atoms: _318  and  _320
REMARK  130  A    between atoms: _320  and  _321
REMARK  131  A    between atoms: _320  and  _323
REMARK  132  A    between atoms: _323  and  _324
REMARK  133  A    between atoms: _326  and  _328
REMARK  134  A    between atoms: _328  and  _329
REMARK  135  A    between atoms: _328  and  _331
REMARK  136  A    between atoms: _331  and  _332
REMARK  137  A    between atoms: _337  and  _338
REMARK  138  A    between atoms: _340  and  _342
REMARK  139  A    between atoms: _342  and  _343
REMARK  140  A    between atoms: _342  and  _345
REMARK  141  A    between atoms: _345  and  _346
REMARK  142  A    between atoms: _346  and  _347
REMARK  143  A    between atoms: _350  and  _352
REMARK  144  A    between atoms: _352  and  _353
REMARK  145  A    between atoms: _352  and  _355
REMARK  146  A    between atoms: _355  and  _356
REMARK  147  A    between atoms: _356  and  _357
REMARK  148  A    between atoms: _357  and  _358
REMARK  149  A    between atoms: _358  and  FE_414
REMARK  150  A    between atoms: _360  and  _362
REMARK  151  A    between atoms: _362  and  _363
REMARK  152  A    between atoms: _362  and  _365
REMARK  153  A    between atoms: _365  and  _366
REMARK  154  A    between atoms: _371  and  _373
REMARK  155  A    between atoms: _373  and  _374
REMARK  156  A    between atoms: _373  and  _376
REMARK  157  A    between atoms: _376  and  _377
REMARK  158  A    between atoms: _380  and  _381
REMARK  159  A    between atoms: _386  and  _388
REMARK  160  A    between atoms: _388  and  _389
REMARK  161  A    between atoms: _388  and  _391
REMARK  162  A    between atoms: _391  and  _392
REMARK  163  A    between atoms: _394  and  _396
REMARK  164  A    between atoms: _396  and  _397
REMARK  165  A    between atoms: _396  and  _399
REMARK  166  A    between atoms: _399  and  _400
REMARK  167  A    between atoms: _400  and  _401
REMARK  168  A    between atoms: _403  and  _405
REMARK  169  A    between atoms: _405  and  _406
REMARK  170  A    between atoms: _405  and  _408
REMARK  171  A    between atoms: _408  and  _409
REMARK                            x       y       z     vdW  Elec       q    Type
REMARK                         _______ _______ _______ _____ _____    ______ ____
ROOT
ATOM      1  CA  SER A   1      25.279  28.194   7.767  0.00  0.00    +0.163 C 
ENDROOT
BRANCH   1   2
ATOM      2  N   SER A   1      24.820  29.564   7.966  0.00  0.00    -0.237 NA
ATOM      3  H   SER A   1      23.870  29.833   7.640  0.00  0.00    +0.142 HD
ENDBRANCH   1   2
BRANCH   1   4
ATOM      4  C   SER A   1      24.657  27.626   6.494  0.00  0.00    +0.227 C 
ATOM      5  O   SER A   1      23.471  27.814   6.241  0.00  0.00    -0.287 OA
ENDBRANCH   1   4
BRANCH   1   6
ATOM      6  CB  SER A   1      24.885  27.336   8.972  0.00  0.00    +0.162 C 
BRANCH   6   7
ATOM      7  OG  SER A   1      25.473  26.051   8.903  0.00  0.00    -0.380 OA
ATOM      8  H   SER A   1      26.459  26.141   8.889  0.00  0.00    +0.211 HD
ENDBRANCH   6   7
ENDBRANCH   1   6
TORSDOF 4
REMARK  Name = ../refined-set-2016/1lgt/1lgt_pocket.pdb
REMARK  171 active torsions:
REMARK  status: ('A' for Active; 'I' for Inactive)
REMARK    1  A    between atoms: _1  and  _3
REMARK    2  A    between atoms: _3  and  _4
REMARK    3  A    between atoms: _3  and  _6
REMARK    4  A    between atoms: _6  and  _7
REMARK    5  A    between atoms: _11  and  FE_414
REMARK    6  A    between atoms: _12  and  _14
REMARK    7  A    between atoms: _14  and  _15
REMARK    8  A    between atoms: _14  and  _17
REMARK    9  A    between atoms: _17  and  _18
REMARK   10  A    between atoms: _24  and  _26
REMARK   11  A    between atoms: _26  and  _27
REMARK   12  A    between atoms: _26  and  _29
REMARK   13  A    between atoms: _32  and  _34
REMARK   14  A    between atoms: _34  and  _35
REMARK   15  A    between atoms: _34  and  _37
REMARK   16  A    between atoms: _37  and  _38
REMARK   17  A    between atoms: _38  and  _39
REMARK   18  A    between atoms: _39  and  _40
REMARK   19  A    between atoms: _49  and  _51
REMARK   20  A    between atoms: _51  and  _52
REMARK   21  A    between atoms: _51  and  _54
REMARK   22  A    between atoms: _54  and  _55
REMARK   23  A    between atoms: _58  and  _60
REMARK   24  A    between atoms: _60  and  _61
REMARK   25  A    between atoms: _60  and  _63
REMARK   26  A    between atoms: _63  and  _64
REMARK   27  A    between atoms: _67  and  _69
REMARK   28  A    between atoms: _69  and  _70
REMARK   29  A    between atoms: _69  and  _72
REMARK   30  A    between atoms: _72  and  _73
REMARK   31  A    between atoms: _73  and  _74
REMARK   32  A    between atoms: _76  and  _78
REMARK   33  A    between atoms: _78  and  _79
REMARK   34  A    between atoms: _78  and  _81
REMARK   35  A    between atoms: _81  and  _82
REMARK   36  A    between atoms: _82  and  _83
REMARK   37  A    between atoms: _85  and  _87
REMARK   38  A    between atoms: _87  and  _88
REMARK   39  A    between atoms: _91  and  _93
REMARK   40  A    between atoms: _93  and  _94
REMARK   41  A    between atoms: _93  and  _96
REMARK   42  A    between atoms: _96  and  _97
REMARK   43  A    between atoms: _102  and  _103
REMARK   44  A    between atoms: _105  and  _107
REMARK   45  A    between atoms: _107  and  _108
REMARK   46  A    between atoms: _107  and  _110
REMARK   47  A    between atoms: _110  and  _111
REMARK   48  A    between atoms: _117  and  _119
REMARK   49  A    between atoms: _119  and  _120
REMARK   50  A    between atoms: _119  and  _122
REMARK   51  A    between atoms: _122  and  _123
REMARK   52  A    between atoms: _128  and  _130
REMARK   53  A    between atoms: _130  and  _131
REMARK   54  A    between atoms: _130  and  _133
REMARK   55  A    between atoms: _133  and  _134
REMARK   56  A    between atoms: _139  and  _141
REMARK   57  A    between atoms: _141  and  _142
REMARK   58  A    between atoms: _141  and  _144
REMARK   59  A    between atoms: _144  and  _145
REMARK   60  A    between atoms: _148  and  _150
REMARK   61  A    between atoms: _150  and  _151
REMARK   62  A    between atoms: _154  and  _156
REMARK   63  A    between atoms: _156  and  _157
REMARK   64  A    between atoms: _156  and  _159
REMARK   65  A    between atoms: _159  and  _160
REMARK   66  A    between atoms: _163  and  _165
REMARK   67  A    between atoms: _165  and  _166
REMARK   68  A    between atoms: _169  and  _171
REMARK   69  A    between atoms: _171  and  _172
REMARK   70  A    between atoms: _171  and  _174
REMARK   71  A    between atoms: _174  and  _175
REMARK   72  A    between atoms: _181  and  _183
REMARK   73  A    between atoms: _183  and  _184
REMARK   74  A    between atoms: _183  and  _186
REMARK   75  A    between atoms: _186  and  _187
REMARK   76  A    between atoms: _190  and  _192
REMARK   77  A    between atoms: _192  and  _193
REMARK   78  A    between atoms: _192  and  _195
REMARK   79  A    between atoms: _195  and  _196
REMARK   80  A    between atoms: _201  and  _203
REMARK   81  A    between atoms: _203  and  _204
REMARK   82  A    between atoms: _203  and  _206
REMARK   83  A    between atoms: _206  and  _207
REMARK   84  A    between atoms: _211  and  FE_414
REMARK   85  A    between atoms: _212  and  _214
REMARK   86  A    between atoms: _214  and  _215
REMARK   87  A    between atoms: _214  and  _217
REMARK   88  A    between atoms: _217  and  _218
REMARK   89  A    between atoms: _224  and  _226
REMARK   90  A    between atoms: _226  and  _227
REMARK   91  A    between atoms: _226  and  _229
REMARK   92  A    between atoms: _229  and  _230
REMARK   93  A    between atoms: _230  and  _231
REMARK   94  A    between atoms: _233  and  _235
REMARK   95  A    between atoms: _235  and  _236
REMARK   96  A    between atoms: _235  and  _238
REMARK   97  A    between atoms: _238  and  _239
REMARK   98  A    between atoms: _241  and  _243
REMARK   99  A    between atoms: _243  and  _244
REMARK  100  A    between atoms: _243  and  _246
REMARK  101  A    between atoms: _246  and  _247
REMARK  102  A    between atoms: _247  and  _248
REMARK  103  A    between atoms: _248  and  _249
REMARK  104  A    between atoms: _258  and  _260
REMARK  105  A    between atoms: _260  and  _261
REMARK  106  A    between atoms: _260  and  _263
REMARK  107  A    between atoms: _263  and  _264
REMARK  108  A    between atoms: _269  and  _271
REMARK  109  A    between atoms: _271  and  _272
REMARK  110  A    between atoms: _271  and  _274
REMARK  111  A    between atoms: _274  and  _275
REMARK  112  A    between atoms: _278  and  _280
REMARK  113  A    between atoms: _280  and  _281
REMARK  114  A    between atoms: _280  and  _283
REMARK  115  A    between atoms: _283  and  _284
REMARK  116  A    between atoms: _289  and  _291
REMARK  117  A    between atoms: _291  and  _292
REMARK  118  A    between atoms: _291  and  _294
REMARK  119  A    between atoms: _294  and  _295
REMARK  120  A    between atoms: _298  and  _300
REMARK  121  A    between atoms: _300  and  _301
REMARK  122  A    between atoms: _300  and  _303
REMARK  123  A    between atoms: _303  and  _304
REMARK  124  A    between atoms: _309  and  _311
REMARK  125  A    between atoms: _311  and  _312
REMARK  126  A    between atoms: _311  and  _314
REMARK  127  A    between atoms: _314  and  _315
REMARK  128  A    between atoms: _315  and  _316
REMARK  129  A    between atoms: _318  and  _320
REMARK  130  A    between atoms: _320  and  _321
REMARK  131  A    between atoms: _320  and  _323
REMARK  132  A    between atoms: _323  and  _324
REMARK  133  A    between atoms: _326  and  _328
REMARK  134  A    between atoms: _328  and  _329
REMARK  135  A    between atoms: _328  and  _331
REMARK  136  A    between atoms: _331  and  _332
REMARK  137  A    between atoms: _337  and  _338
REMARK  138  A    between atoms: _340  and  _342
REMARK  139  A    between atoms: _342  and  _343
REMARK  140  A    between atoms: _342  and  _345
REMARK  141  A    between atoms: _345  and  _346
REMARK  142  A    between atoms: _346  and  _347
REMARK  143  A    between atoms: _350  and  _352
REMARK  144  A    between atoms: _352  and  _353
REMARK  145  A    between atoms: _352  and  _355
REMARK  146  A    between atoms: _355  and  _356
REMARK  147  A    between atoms: _356  and  _357
REMARK  148  A    between atoms: _357  and  _358
REMARK  149  A    between atoms: _358  and  FE_414
REMARK  150  A    between atoms: _360  and  _362
REMARK  151  A    between atoms: _362  and  _363
REMARK  152  A    between atoms: _362  and  _365
REMARK  153  A    between atoms: _365  and  _366
REMARK  154  A    between atoms: _371  and  _373
REMARK  155  A    between atoms: _373  and  _374
REMARK  156  A    between atoms: _373  and  _376
REMARK  157  A    between atoms: _376  and  _377
REMARK  158  A    between atoms: _380  and  _381
REMARK  159  A    between atoms: _386  and  _388
REMARK  160  A    between atoms: _388  and  _389
REMARK  161  A    between atoms: _388  and  _391
REMARK  162  A    between atoms: _391  and  _392
REMARK  163  A    between atoms: _394  and  _396
REMARK  164  A    between atoms: _396  and  _397
REMARK  165  A    between atoms: _396  and  _399
REMARK  166  A    between atoms: _399  and  _400
REMARK  167  A    between atoms: _400  and  _401
REMARK  168  A    between atoms: _403  and  _405
REMARK  169  A    between atoms: _405  and  _406
REMARK  170  A    between atoms: _405  and  _408
REMARK  171  A    between atoms: _408  and  _409
REMARK                            x       y       z     vdW  Elec       q    Type
REMARK                         _______ _______ _______ _____ _____    ______ ____
ROOT
ATOM      1  C   THR A   3      22.818  13.262  14.070  0.00  0.00    +0.243 C 
ATOM      2  N   ASN A   4      22.170  14.060  14.919  0.00  0.00    -0.297 N 
ATOM      3  H   ASN A   4      22.338  15.086  14.895  0.00  0.00    +0.150 HD
ATOM      4  O   THR A   3      22.614  12.045  14.011  0.00  0.00    -0.273 OA
ENDROOT
BRANCH   1   5
ATOM      5  CA  THR A   3      23.844  13.913  13.140  0.00  0.00    +0.176 C 
BRANCH   5   7
ATOM      6  C   HIS A   2      22.528  15.541  11.887  0.00  0.00    +0.241 C 
ATOM      7  N   THR A   3      23.498  15.273  12.752  0.00  0.00    -0.295 N 
ATOM      8  H   THR A   3      24.031  16.063  13.168  0.00  0.00    +0.150 HD
ATOM      9  O   HIS A   2      21.847  14.673  11.346  0.00  0.00    -0.273 OA
BRANCH   6  10
ATOM     10  CA  HIS A   2      22.297  17.018  11.605  0.00  0.00    +0.155 C 
BRANCH  10  12
ATOM     11  C   ARG A   1      22.569  17.185   9.197  0.00  0.00    +0.238 C 
ATOM     12  N   HIS A   2      21.787  17.284  10.266  0.00  0.00    -0.297 N 
ATOM     13  H   HIS A   2      20.791  17.557  10.145  0.00  0.00    +0.150 HD
ATOM     14  O   ARG A   1      23.755  16.858   9.260  0.00  0.00    -0.274 OA
BRANCH  11  15
ATOM     15  CA  ARG A   1      21.926  17.500   7.860  0.00  0.00    +0.145 C 
BRANCH  15  16
ATOM     16  N   ARG A   1      22.810  18.409   7.141  0.00  0.00    -0.238 NA
ATOM     17  H   ARG A   1      23.806  18.147   6.999  0.00  0.00    +0.142 HD
ENDBRANCH  15  16
BRANCH  15  18
ATOM     18  CB  ARG A   1      21.695  16.186   7.097  0.00  0.00    +0.030 C 
BRANCH  18  19
ATOM     19  CG  ARG A   1      20.580  15.352   7.751  0.00  0.00    +0.045 C 
BRANCH  19  20
ATOM     20  CD  ARG A   1      20.558  13.886   7.323  0.00  0.00    +0.174 C 
BRANCH  20  21
ATOM     21  NE  ARG A   1      20.081  13.644   5.963  0.00  0.00    -0.265 N 
ATOM     22  CZ  ARG A   1      18.802  13.549   5.606  0.00  0.00    +0.342 C 
ATOM     23  NH2 ARG A   1      17.836  13.686   6.503  0.00  0.00    -0.292 N 
ATOM     24 HH21 ARG A   1      18.073  13.870   7.499  0.00  0.00    +0.255 HD
ATOM     25 HH22 ARG A   1      16.841  13.610   6.211  0.00  0.00    +0.255 HD
ATOM     26  NH1 ARG A   1      18.489  13.278   4.346  0.00  0.00    -0.292 N 
ATOM     27 HH11 ARG A   1      17.491  13.203   4.063  0.00  0.00    +0.255 HD
ATOM     28 HH12 ARG A   1      19.241  13.141   3.641  0.00  0.00    +0.255 HD
ATOM     29  HE  ARG A   1      20.797  13.538   5.216  0.00  0.00    +0.259 HD
ENDBRANCH  20  21
ENDBRANCH  19  20
ENDBRANCH  18  19
ENDBRANCH  15  18
ENDBRANCH  11  15
ENDBRANCH  10  12
BRANCH  10  30
ATOM     30  CB  HIS A   2      21.345  17.588  12.654  0.00  0.00    +0.076 C 
BRANCH  30  31
ATOM     31  CG  HIS A   2      21.378  19.081  12.749  0.00  0.00    +0.082 A 
ATOM     32  ND1 HIS A   2      22.527  19.779  13.055  0.00  0.00    -0.227 NA
ATOM     33  CE1 HIS A   2      22.257  21.072  13.091  0.00  0.00    +0.199 A 
ATOM     34  NE2 HIS A   2      20.974  21.237  12.821  0.00  0.00    -0.221 NA
ATOM     35  CD2 HIS A   2      20.402  20.007  12.599  0.00  0.00    +0.115 A 
ENDBRANCH  30  31
ENDBRANCH  10  30
ENDBRANCH   6  10
ENDBRANCH   5   7
BRANCH   5  36
ATOM     36  CB  THR A   3      25.189  13.886  13.883  0.00  0.00    +0.137 C 
ATOM     37  CG2 THR A   3      26.342  14.169  12.937  0.00  0.00    +0.034 C 
BRANCH  36  38
ATOM     38  OG1 THR A   3      25.163  14.875  14.919  0.00  0.00    -0.382 OA
ATOM     39  HG1 THR A   3      26.026  14.866  15.404  0.00  0.00    +0.210 HD
ENDBRANCH  36  38
ENDBRANCH   5  36
ENDBRANCH   1   5
BRANCH   2  40
ATOM     40  CA  ASN A   4      21.227  13.502  15.882  0.00  0.00    +0.158 C 
BRANCH  40  41
ATOM     41  C   ASN A   4      19.767  13.409  15.453  0.00  0.00    +0.241 C 
ATOM     42  O   ASN A   4      19.184  12.329  15.527  0.00  0.00    -0.273 OA
ATOM     43  N   ASP A   5      19.163  14.507  15.006  0.00  0.00    -0.297 N 
ATOM     44  H   ASP A   5      19.674  15.412  14.966  0.00  0.00    +0.150 HD
BRANCH  43  45
ATOM     45  CA  ASP A   5      17.770  14.420  14.572  0.00  0.00    +0.160 C 
BRANCH  45  46
ATOM     46  C   ASP A   5      17.636  14.229  13.058  0.00  0.00    +0.241 C 
ATOM     47  O   ASP A   5      16.531  14.060  12.538  0.00  0.00    -0.273 OA
ATOM     48  N   HIS A   6      18.773  14.231  12.362  0.00  0.00    -0.297 N 
ATOM     49  H   HIS A   6      19.667  14.376  12.872  0.00  0.00    +0.150 HD
BRANCH  48  50
ATOM     50  CA  HIS A   6      18.819  14.039  10.913  0.00  0.00    +0.155 C 
BRANCH  50  51
ATOM     51  C   HIS A   6      18.017  15.060  10.116  0.00  0.00    +0.241 C 
ATOM     52  N   MET A   7      17.868  16.252  10.672  0.00  0.00    -0.298 N 
ATOM     53  H   MET A   7      18.277  16.440  11.609  0.00  0.00    +0.150 HD
ATOM     54  O   HIS A   6      17.545  14.780   9.018  0.00  0.00    -0.273 OA
BRANCH  52  55
ATOM     55  CA  MET A   7      17.137  17.297   9.980  0.00  0.00    +0.138 C 
BRANCH  55  56
ATOM     56  C   MET A   7      18.041  17.973   8.957  0.00  0.00    +0.227 C 
ATOM     57  O   MET A   7      19.225  18.200   9.224  0.00  0.00    -0.286 OA
ENDBRANCH  55  56
BRANCH  55  58
ATOM     58  CB  MET A   7      16.645  18.351  10.974  0.00  0.00    +0.039 C 
BRANCH  58  59
ATOM     59  CG  MET A   7      15.952  19.520  10.299  0.00  0.00    +0.060 C 
BRANCH  59  60
ATOM     60  SD  MET A   7      15.332  20.707  11.483  0.00  0.00    -0.139 S 
ATOM     61  CE  MET A   7      13.978  19.752  12.228  0.00  0.00    +0.069 C 
ENDBRANCH  59  60
ENDBRANCH  58  59
ENDBRANCH  55  58
ENDBRANCH  52  55
ENDBRANCH  50  51
BRANCH  50  62
ATOM     62  CB  HIS A   6      18.349  12.622  10.562  0.00  0.00    +0.076 C 
BRANCH  62  63
ATOM     63  CG  HIS A   6      19.188  11.550  11.181  0.00  0.00    +0.082 A 
ATOM     64  CD2 HIS A   6      20.383  11.613  11.814  0.00  0.00    +0.115 A 
ATOM     65  NE2 HIS A   6      20.713  10.332  12.186  0.00  0.00    -0.221 NA
ATOM     66  CE1 HIS A   6      19.754   9.512  11.795  0.00  0.00    +0.199 A 
ATOM     67  ND1 HIS A   6      18.820  10.221  11.185  0.00  0.00    -0.227 NA
ENDBRANCH  62  63
ENDBRANCH  50  62
ENDBRANCH  48  50
ENDBRANCH  45  46
BRANCH  45  68
ATOM     68  CB  ASP A   5      16.975  15.646  15.044  0.00  0.00    +0.143 C 
BRANCH  68  69
ATOM     69  CG  ASP A   5      17.320  16.907  14.284  0.00  0.00    +0.367 C 
ATOM     70  OD2 ASP A   5      16.563  17.894  14.430  0.00  0.00    -0.246 OA
ATOM     71  OD1 ASP A   5      18.334  16.927  13.558  0.00  0.00    -0.246 OA
ENDBRANCH  68  69
ENDBRANCH  45  68
ENDBRANCH  43  45
ENDBRANCH  40  41
BRANCH  40  72
ATOM     72  CB  ASN A   4      21.358  14.220  17.240  0.00  0.00    +0.114 C 
BRANCH  72  73
ATOM     73  CG  ASN A   4      21.095  15.720  17.164  0.00  0.00    +0.222 C 
ATOM     74  ND2 ASN A   4      21.023  16.355  18.328  0.00  0.00    -0.329 N 
ATOM     75 HD21 ASN A   4      21.136  15.826  19.217  0.00  0.00    +0.145 HD
ATOM     76 HD22 ASN A   4      20.854  17.381  18.351  0.00  0.00    +0.145 HD
ATOM     77  OD1 ASN A   4      20.969  16.296  16.089  0.00  0.00    -0.275 OA
ENDBRANCH  72  73
ENDBRANCH  40  72
ENDBRANCH   2  40
TORSDOF 31
REMARK  Name = ../refined-set-2016/1lgt/1lgt_pocket.pdb
REMARK  171 active torsions:
REMARK  status: ('A' for Active; 'I' for Inactive)
REMARK    1  A    between atoms: _1  and  _3
REMARK    2  A    between atoms: _3  and  _4
REMARK    3  A    between atoms: _3  and  _6
REMARK    4  A    between atoms: _6  and  _7
REMARK    5  A    between atoms: _11  and  FE_414
REMARK    6  A    between atoms: _12  and  _14
REMARK    7  A    between atoms: _14  and  _15
REMARK    8  A    between atoms: _14  and  _17
REMARK    9  A    between atoms: _17  and  _18
REMARK   10  A    between atoms: _24  and  _26
REMARK   11  A    between atoms: _26  and  _27
REMARK   12  A    between atoms: _26  and  _29
REMARK   13  A    between atoms: _32  and  _34
REMARK   14  A    between atoms: _34  and  _35
REMARK   15  A    between atoms: _34  and  _37
REMARK   16  A    between atoms: _37  and  _38
REMARK   17  A    between atoms: _38  and  _39
REMARK   18  A    between atoms: _39  and  _40
REMARK   19  A    between atoms: _49  and  _51
REMARK   20  A    between atoms: _51  and  _52
REMARK   21  A    between atoms: _51  and  _54
REMARK   22  A    between atoms: _54  and  _55
REMARK   23  A    between atoms: _58  and  _60
REMARK   24  A    between atoms: _60  and  _61
REMARK   25  A    between atoms: _60  and  _63
REMARK   26  A    between atoms: _63  and  _64
REMARK   27  A    between atoms: _67  and  _69
REMARK   28  A    between atoms: _69  and  _70
REMARK   29  A    between atoms: _69  and  _72
REMARK   30  A    between atoms: _72  and  _73
REMARK   31  A    between atoms: _73  and  _74
REMARK   32  A    between atoms: _76  and  _78
REMARK   33  A    between atoms: _78  and  _79
REMARK   34  A    between atoms: _78  and  _81
REMARK   35  A    between atoms: _81  and  _82
REMARK   36  A    between atoms: _82  and  _83
REMARK   37  A    between atoms: _85  and  _87
REMARK   38  A    between atoms: _87  and  _88
REMARK   39  A    between atoms: _91  and  _93
REMARK   40  A    between atoms: _93  and  _94
REMARK   41  A    between atoms: _93  and  _96
REMARK   42  A    between atoms: _96  and  _97
REMARK   43  A    between atoms: _102  and  _103
REMARK   44  A    between atoms: _105  and  _107
REMARK   45  A    between atoms: _107  and  _108
REMARK   46  A    between atoms: _107  and  _110
REMARK   47  A    between atoms: _110  and  _111
REMARK   48  A    between atoms: _117  and  _119
REMARK   49  A    between atoms: _119  and  _120
REMARK   50  A    between atoms: _119  and  _122
REMARK   51  A    between atoms: _122  and  _123
REMARK   52  A    between atoms: _128  and  _130
REMARK   53  A    between atoms: _130  and  _131
REMARK   54  A    between atoms: _130  and  _133
REMARK   55  A    between atoms: _133  and  _134
REMARK   56  A    between atoms: _139  and  _141
REMARK   57  A    between atoms: _141  and  _142
REMARK   58  A    between atoms: _141  and  _144
REMARK   59  A    between atoms: _144  and  _145
REMARK   60  A    between atoms: _148  and  _150
REMARK   61  A    between atoms: _150  and  _151
REMARK   62  A    between atoms: _154  and  _156
REMARK   63  A    between atoms: _156  and  _157
REMARK   64  A    between atoms: _156  and  _159
REMARK   65  A    between atoms: _159  and  _160
REMARK   66  A    between atoms: _163  and  _165
REMARK   67  A    between atoms: _165  and  _166
REMARK   68  A    between atoms: _169  and  _171
REMARK   69  A    between atoms: _171  and  _172
REMARK   70  A    between atoms: _171  and  _174
REMARK   71  A    between atoms: _174  and  _175
REMARK   72  A    between atoms: _181  and  _183
REMARK   73  A    between atoms: _183  and  _184
REMARK   74  A    between atoms: _183  and  _186
REMARK   75  A    between atoms: _186  and  _187
REMARK   76  A    between atoms: _190  and  _192
REMARK   77  A    between atoms: _192  and  _193
REMARK   78  A    between atoms: _192  and  _195
REMARK   79  A    between atoms: _195  and  _196
REMARK   80  A    between atoms: _201  and  _203
REMARK   81  A    between atoms: _203  and  _204
REMARK   82  A    between atoms: _203  and  _206
REMARK   83  A    between atoms: _206  and  _207
REMARK   84  A    between atoms: _211  and  FE_414
REMARK   85  A    between atoms: _212  and  _214
REMARK   86  A    between atoms: _214  and  _215
REMARK   87  A    between atoms: _214  and  _217
REMARK   88  A    between atoms: _217  and  _218
REMARK   89  A    between atoms: _224  and  _226
REMARK   90  A    between atoms: _226  and  _227
REMARK   91  A    between atoms: _226  and  _229
REMARK   92  A    between atoms: _229  and  _230
REMARK   93  A    between atoms: _230  and  _231
REMARK   94  A    between atoms: _233  and  _235
REMARK   95  A    between atoms: _235  and  _236
REMARK   96  A    between atoms: _235  and  _238
REMARK   97  A    between atoms: _238  and  _239
REMARK   98  A    between atoms: _241  and  _243
REMARK   99  A    between atoms: _243  and  _244
REMARK  100  A    between atoms: _243  and  _246
REMARK  101  A    between atoms: _246  and  _247
REMARK  102  A    between atoms: _247  and  _248
REMARK  103  A    between atoms: _248  and  _249
REMARK  104  A    between atoms: _258  and  _260
REMARK  105  A    between atoms: _260  and  _261
REMARK  106  A    between atoms: _260  and  _263
REMARK  107  A    between atoms: _263  and  _264
REMARK  108  A    between atoms: _269  and  _271
REMARK  109  A    between atoms: _271  and  _272
REMARK  110  A    between atoms: _271  and  _274
REMARK  111  A    between atoms: _274  and  _275
REMARK  112  A    between atoms: _278  and  _280
REMARK  113  A    between atoms: _280  and  _281
REMARK  114  A    between atoms: _280  and  _283
REMARK  115  A    between atoms: _283  and  _284
REMARK  116  A    between atoms: _289  and  _291
REMARK  117  A    between atoms: _291  and  _292
REMARK  118  A    between atoms: _291  and  _294
REMARK  119  A    between atoms: _294  and  _295
REMARK  120  A    between atoms: _298  and  _300
REMARK  121  A    between atoms: _300  and  _301
REMARK  122  A    between atoms: _300  and  _303
REMARK  123  A    between atoms: _303  and  _304
REMARK  124  A    between atoms: _309  and  _311
REMARK  125  A    between atoms: _311  and  _312
REMARK  126  A    between atoms: _311  and  _314
REMARK  127  A    between atoms: _314  and  _315
REMARK  128  A    between atoms: _315  and  _316
REMARK  129  A    between atoms: _318  and  _320
REMARK  130  A    between atoms: _320  and  _321
REMARK  131  A    between atoms: _320  and  _323
REMARK  132  A    between atoms: _323  and  _324
REMARK  133  A    between atoms: _326  and  _328
REMARK  134  A    between atoms: _328  and  _329
REMARK  135  A    between atoms: _328  and  _331
REMARK  136  A    between atoms: _331  and  _332
REMARK  137  A    between atoms: _337  and  _338
REMARK  138  A    between atoms: _340  and  _342
REMARK  139  A    between atoms: _342  and  _343
REMARK  140  A    between atoms: _342  and  _345
REMARK  141  A    between atoms: _345  and  _346
REMARK  142  A    between atoms: _346  and  _347
REMARK  143  A    between atoms: _350  and  _352
REMARK  144  A    between atoms: _352  and  _353
REMARK  145  A    between atoms: _352  and  _355
REMARK  146  A    between atoms: _355  and  _356
REMARK  147  A    between atoms: _356  and  _357
REMARK  148  A    between atoms: _357  and  _358
REMARK  149  A    between atoms: _358  and  FE_414
REMARK  150  A    between atoms: _360  and  _362
REMARK  151  A    between atoms: _362  and  _363
REMARK  152  A    between atoms: _362  and  _365
REMARK  153  A    between atoms: _365  and  _366
REMARK  154  A    between atoms: _371  and  _373
REMARK  155  A    between atoms: _373  and  _374
REMARK  156  A    between atoms: _373  and  _376
REMARK  157  A    between atoms: _376  and  _377
REMARK  158  A    between atoms: _380  and  _381
REMARK  159  A    between atoms: _386  and  _388
REMARK  160  A    between atoms: _388  and  _389
REMARK  161  A    between atoms: _388  and  _391
REMARK  162  A    between atoms: _391  and  _392
REMARK  163  A    between atoms: _394  and  _396
REMARK  164  A    between atoms: _396  and  _397
REMARK  165  A    between atoms: _396  and  _399
REMARK  166  A    between atoms: _399  and  _400
REMARK  167  A    between atoms: _400  and  _401
REMARK  168  A    between atoms: _403  and  _405
REMARK  169  A    between atoms: _405  and  _406
REMARK  170  A    between atoms: _405  and  _408
REMARK  171  A    between atoms: _408  and  _409
REMARK                            x       y       z     vdW  Elec       q    Type
REMARK                         _______ _______ _______ _____ _____    ______ ____
ROOT
ATOM      1  CA  SER A   1      18.408  22.710   7.430  0.00  0.00    +0.163 C 
ENDROOT
BRANCH   1   2
ATOM      2  N   SER A   1      18.754  21.319   7.167  0.00  0.00    -0.237 NA
ATOM      3  H   SER A   1      19.751  21.022   7.160  0.00  0.00    +0.142 HD
ENDBRANCH   1   2
BRANCH   1   4
ATOM      4  C   SER A   1      19.535  23.679   7.127  0.00  0.00    +0.227 C 
ATOM      5  O   SER A   1      20.626  23.284   6.725  0.00  0.00    -0.287 OA
ENDBRANCH   1   4
BRANCH   1   6
ATOM      6  CB  SER A   1      18.078  22.863   8.911  0.00  0.00    +0.162 C 
BRANCH   6   7
ATOM      7  OG  SER A   1      19.246  22.617   9.695  0.00  0.00    -0.380 OA
ATOM      8  H   SER A   1      19.025  22.718  10.655  0.00  0.00    +0.211 HD
ENDBRANCH   6   7
ENDBRANCH   1   6
TORSDOF 4
REMARK  Name = ../refined-set-2016/1lgt/1lgt_pocket.pdb
REMARK  171 active torsions:
REMARK  status: ('A' for Active; 'I' for Inactive)
REMARK    1  A    between atoms: _1  and  _3
REMARK    2  A    between atoms: _3  and  _4
REMARK    3  A    between atoms: _3  and  _6
REMARK    4  A    between atoms: _6  and  _7
REMARK    5  A    between atoms: _11  and  FE_414
REMARK    6  A    between atoms: _12  and  _14
REMARK    7  A    between atoms: _14  and  _15
REMARK    8  A    between atoms: _14  and  _17
REMARK    9  A    between atoms: _17  and  _18
REMARK   10  A    between atoms: _24  and  _26
REMARK   11  A    between atoms: _26  and  _27
REMARK   12  A    between atoms: _26  and  _29
REMARK   13  A    between atoms: _32  and  _34
REMARK   14  A    between atoms: _34  and  _35
REMARK   15  A    between atoms: _34  and  _37
REMARK   16  A    between atoms: _37  and  _38
REMARK   17  A    between atoms: _38  and  _39
REMARK   18  A    between atoms: _39  and  _40
REMARK   19  A    between atoms: _49  and  _51
REMARK   20  A    between atoms: _51  and  _52
REMARK   21  A    between atoms: _51  and  _54
REMARK   22  A    between atoms: _54  and  _55
REMARK   23  A    between atoms: _58  and  _60
REMARK   24  A    between atoms: _60  and  _61
REMARK   25  A    between atoms: _60  and  _63
REMARK   26  A    between atoms: _63  and  _64
REMARK   27  A    between atoms: _67  and  _69
REMARK   28  A    between atoms: _69  and  _70
REMARK   29  A    between atoms: _69  and  _72
REMARK   30  A    between atoms: _72  and  _73
REMARK   31  A    between atoms: _73  and  _74
REMARK   32  A    between atoms: _76  and  _78
REMARK   33  A    between atoms: _78  and  _79
REMARK   34  A    between atoms: _78  and  _81
REMARK   35  A    between atoms: _81  and  _82
REMARK   36  A    between atoms: _82  and  _83
REMARK   37  A    between atoms: _85  and  _87
REMARK   38  A    between atoms: _87  and  _88
REMARK   39  A    between atoms: _91  and  _93
REMARK   40  A    between atoms: _93  and  _94
REMARK   41  A    between atoms: _93  and  _96
REMARK   42  A    between atoms: _96  and  _97
REMARK   43  A    between atoms: _102  and  _103
REMARK   44  A    between atoms: _105  and  _107
REMARK   45  A    between atoms: _107  and  _108
REMARK   46  A    between atoms: _107  and  _110
REMARK   47  A    between atoms: _110  and  _111
REMARK   48  A    between atoms: _117  and  _119
REMARK   49  A    between atoms: _119  and  _120
REMARK   50  A    between atoms: _119  and  _122
REMARK   51  A    between atoms: _122  and  _123
REMARK   52  A    between atoms: _128  and  _130
REMARK   53  A    between atoms: _130  and  _131
REMARK   54  A    between atoms: _130  and  _133
REMARK   55  A    between atoms: _133  and  _134
REMARK   56  A    between atoms: _139  and  _141
REMARK   57  A    between atoms: _141  and  _142
REMARK   58  A    between atoms: _141  and  _144
REMARK   59  A    between atoms: _144  and  _145
REMARK   60  A    between atoms: _148  and  _150
REMARK   61  A    between atoms: _150  and  _151
REMARK   62  A    between atoms: _154  and  _156
REMARK   63  A    between atoms: _156  and  _157
REMARK   64  A    between atoms: _156  and  _159
REMARK   65  A    between atoms: _159  and  _160
REMARK   66  A    between atoms: _163  and  _165
REMARK   67  A    between atoms: _165  and  _166
REMARK   68  A    between atoms: _169  and  _171
REMARK   69  A    between atoms: _171  and  _172
REMARK   70  A    between atoms: _171  and  _174
REMARK   71  A    between atoms: _174  and  _175
REMARK   72  A    between atoms: _181  and  _183
REMARK   73  A    between atoms: _183  and  _184
REMARK   74  A    between atoms: _183  and  _186
REMARK   75  A    between atoms: _186  and  _187
REMARK   76  A    between atoms: _190  and  _192
REMARK   77  A    between atoms: _192  and  _193
REMARK   78  A    between atoms: _192  and  _195
REMARK   79  A    between atoms: _195  and  _196
REMARK   80  A    between atoms: _201  and  _203
REMARK   81  A    between atoms: _203  and  _204
REMARK   82  A    between atoms: _203  and  _206
REMARK   83  A    between atoms: _206  and  _207
REMARK   84  A    between atoms: _211  and  FE_414
REMARK   85  A    between atoms: _212  and  _214
REMARK   86  A    between atoms: _214  and  _215
REMARK   87  A    between atoms: _214  and  _217
REMARK   88  A    between atoms: _217  and  _218
REMARK   89  A    between atoms: _224  and  _226
REMARK   90  A    between atoms: _226  and  _227
REMARK   91  A    between atoms: _226  and  _229
REMARK   92  A    between atoms: _229  and  _230
REMARK   93  A    between atoms: _230  and  _231
REMARK   94  A    between atoms: _233  and  _235
REMARK   95  A    between atoms: _235  and  _236
REMARK   96  A    between atoms: _235  and  _238
REMARK   97  A    between atoms: _238  and  _239
REMARK   98  A    between atoms: _241  and  _243
REMARK   99  A    between atoms: _243  and  _244
REMARK  100  A    between atoms: _243  and  _246
REMARK  101  A    between atoms: _246  and  _247
REMARK  102  A    between atoms: _247  and  _248
REMARK  103  A    between atoms: _248  and  _249
REMARK  104  A    between atoms: _258  and  _260
REMARK  105  A    between atoms: _260  and  _261
REMARK  106  A    between atoms: _260  and  _263
REMARK  107  A    between atoms: _263  and  _264
REMARK  108  A    between atoms: _269  and  _271
REMARK  109  A    between atoms: _271  and  _272
REMARK  110  A    between atoms: _271  and  _274
REMARK  111  A    between atoms: _274  and  _275
REMARK  112  A    between atoms: _278  and  _280
REMARK  113  A    between atoms: _280  and  _281
REMARK  114  A    between atoms: _280  and  _283
REMARK  115  A    between atoms: _283  and  _284
REMARK  116  A    between atoms: _289  and  _291
REMARK  117  A    between atoms: _291  and  _292
REMARK  118  A    between atoms: _291  and  _294
REMARK  119  A    between atoms: _294  and  _295
REMARK  120  A    between atoms: _298  and  _300
REMARK  121  A    between atoms: _300  and  _301
REMARK  122  A    between atoms: _300  and  _303
REMARK  123  A    between atoms: _303  and  _304
REMARK  124  A    between atoms: _309  and  _311
REMARK  125  A    between atoms: _311  and  _312
REMARK  126  A    between atoms: _311  and  _314
REMARK  127  A    between atoms: _314  and  _315
REMARK  128  A    between atoms: _315  and  _316
REMARK  129  A    between atoms: _318  and  _320
REMARK  130  A    between atoms: _320  and  _321
REMARK  131  A    between atoms: _320  and  _323
REMARK  132  A    between atoms: _323  and  _324
REMARK  133  A    between atoms: _326  and  _328
REMARK  134  A    between atoms: _328  and  _329
REMARK  135  A    between atoms: _328  and  _331
REMARK  136  A    between atoms: _331  and  _332
REMARK  137  A    between atoms: _337  and  _338
REMARK  138  A    between atoms: _340  and  _342
REMARK  139  A    between atoms: _342  and  _343
REMARK  140  A    between atoms: _342  and  _345
REMARK  141  A    between atoms: _345  and  _346
REMARK  142  A    between atoms: _346  and  _347
REMARK  143  A    between atoms: _350  and  _352
REMARK  144  A    between atoms: _352  and  _353
REMARK  145  A    between atoms: _352  and  _355
REMARK  146  A    between atoms: _355  and  _356
REMARK  147  A    between atoms: _356  and  _357
REMARK  148  A    between atoms: _357  and  _358
REMARK  149  A    between atoms: _358  and  FE_414
REMARK  150  A    between atoms: _360  and  _362
REMARK  151  A    between atoms: _362  and  _363
REMARK  152  A    between atoms: _362  and  _365
REMARK  153  A    between atoms: _365  and  _366
REMARK  154  A    between atoms: _371  and  _373
REMARK  155  A    between atoms: _373  and  _374
REMARK  156  A    between atoms: _373  and  _376
REMARK  157  A    between atoms: _376  and  _377
REMARK  158  A    between atoms: _380  and  _381
REMARK  159  A    between atoms: _386  and  _388
REMARK  160  A    between atoms: _388  and  _389
REMARK  161  A    between atoms: _388  and  _391
REMARK  162  A    between atoms: _391  and  _392
REMARK  163  A    between atoms: _394  and  _396
REMARK  164  A    between atoms: _396  and  _397
REMARK  165  A    between atoms: _396  and  _399
REMARK  166  A    between atoms: _399  and  _400
REMARK  167  A    between atoms: _400  and  _401
REMARK  168  A    between atoms: _403  and  _405
REMARK  169  A    between atoms: _405  and  _406
REMARK  170  A    between atoms: _405  and  _408
REMARK  171  A    between atoms: _408  and  _409
REMARK                            x       y       z     vdW  Elec       q    Type
REMARK                         _______ _______ _______ _____ _____    ______ ____
ROOT
ATOM      1  CG  TYR A   1      21.608  27.365  11.610  0.00  0.00    -0.020 A 
ATOM      2  CD2 TYR A   1      21.122  27.365  12.919  0.00  0.00    -0.001 A 
ATOM      3  CE2 TYR A   1      21.064  26.194  13.668  0.00  0.00    +0.036 A 
ATOM      4  CZ  TYR A   1      21.500  25.007  13.101  0.00  0.00    +0.134 A 
ATOM      5  CE1 TYR A   1      21.980  24.978  11.804  0.00  0.00    +0.036 A 
ATOM      6  CD1 TYR A   1      22.031  26.155  11.063  0.00  0.00    -0.001 A 
ENDROOT
BRANCH   4   7
ATOM      7  OH  TYR A   1      21.480  23.856  13.844  0.00  0.00    -0.506 OA
ATOM      8  HH  TYR A   1      20.551  23.664  14.128  0.00  0.00    +0.292 HD
ENDBRANCH   4   7
BRANCH   1   9
ATOM      9  CB  TYR A   1      21.715  28.652  10.823  0.00  0.00    +0.051 C 
BRANCH   9  10
ATOM     10  CA  TYR A   1      20.682  28.827   9.708  0.00  0.00    +0.137 C 
BRANCH  10  11
ATOM     11  N   TYR A   1      20.875  27.852   8.640  0.00  0.00    -0.239 NA
ATOM     12  H   TYR A   1      21.771  27.845   8.112  0.00  0.00    +0.142 HD
ENDBRANCH  10  11
BRANCH  10  13
ATOM     13  C   TYR A   1      20.831  30.217   9.113  0.00  0.00    +0.224 C 
ATOM     14  O   TYR A   1      21.536  30.404   8.122  0.00  0.00    -0.287 OA
ENDBRANCH  10  13
ENDBRANCH   9  10
ENDBRANCH   1   9
TORSDOF 5
REMARK  Name = ../refined-set-2016/1lgt/1lgt_pocket.pdb
REMARK  171 active torsions:
REMARK  status: ('A' for Active; 'I' for Inactive)
REMARK    1  A    between atoms: _1  and  _3
REMARK    2  A    between atoms: _3  and  _4
REMARK    3  A    between atoms: _3  and  _6
REMARK    4  A    between atoms: _6  and  _7
REMARK    5  A    between atoms: _11  and  FE_414
REMARK    6  A    between atoms: _12  and  _14
REMARK    7  A    between atoms: _14  and  _15
REMARK    8  A    between atoms: _14  and  _17
REMARK    9  A    between atoms: _17  and  _18
REMARK   10  A    between atoms: _24  and  _26
REMARK   11  A    between atoms: _26  and  _27
REMARK   12  A    between atoms: _26  and  _29
REMARK   13  A    between atoms: _32  and  _34
REMARK   14  A    between atoms: _34  and  _35
REMARK   15  A    between atoms: _34  and  _37
REMARK   16  A    between atoms: _37  and  _38
REMARK   17  A    between atoms: _38  and  _39
REMARK   18  A    between atoms: _39  and  _40
REMARK   19  A    between atoms: _49  and  _51
REMARK   20  A    between atoms: _51  and  _52
REMARK   21  A    between atoms: _51  and  _54
REMARK   22  A    between atoms: _54  and  _55
REMARK   23  A    between atoms: _58  and  _60
REMARK   24  A    between atoms: _60  and  _61
REMARK   25  A    between atoms: _60  and  _63
REMARK   26  A    between atoms: _63  and  _64
REMARK   27  A    between atoms: _67  and  _69
REMARK   28  A    between atoms: _69  and  _70
REMARK   29  A    between atoms: _69  and  _72
REMARK   30  A    between atoms: _72  and  _73
REMARK   31  A    between atoms: _73  and  _74
REMARK   32  A    between atoms: _76  and  _78
REMARK   33  A    between atoms: _78  and  _79
REMARK   34  A    between atoms: _78  and  _81
REMARK   35  A    between atoms: _81  and  _82
REMARK   36  A    between atoms: _82  and  _83
REMARK   37  A    between atoms: _85  and  _87
REMARK   38  A    between atoms: _87  and  _88
REMARK   39  A    between atoms: _91  and  _93
REMARK   40  A    between atoms: _93  and  _94
REMARK   41  A    between atoms: _93  and  _96
REMARK   42  A    between atoms: _96  and  _97
REMARK   43  A    between atoms: _102  and  _103
REMARK   44  A    between atoms: _105  and  _107
REMARK   45  A    between atoms: _107  and  _108
REMARK   46  A    between atoms: _107  and  _110
REMARK   47  A    between atoms: _110  and  _111
REMARK   48  A    between atoms: _117  and  _119
REMARK   49  A    between atoms: _119  and  _120
REMARK   50  A    between atoms: _119  and  _122
REMARK   51  A    between atoms: _122  and  _123
REMARK   52  A    between atoms: _128  and  _130
REMARK   53  A    between atoms: _130  and  _131
REMARK   54  A    between atoms: _130  and  _133
REMARK   55  A    between atoms: _133  and  _134
REMARK   56  A    between atoms: _139  and  _141
REMARK   57  A    between atoms: _141  and  _142
REMARK   58  A    between atoms: _141  and  _144
REMARK   59  A    between atoms: _144  and  _145
REMARK   60  A    between atoms: _148  and  _150
REMARK   61  A    between atoms: _150  and  _151
REMARK   62  A    between atoms: _154  and  _156
REMARK   63  A    between atoms: _156  and  _157
REMARK   64  A    between atoms: _156  and  _159
REMARK   65  A    between atoms: _159  and  _160
REMARK   66  A    between atoms: _163  and  _165
REMARK   67  A    between atoms: _165  and  _166
REMARK   68  A    between atoms: _169  and  _171
REMARK   69  A    between atoms: _171  and  _172
REMARK   70  A    between atoms: _171  and  _174
REMARK   71  A    between atoms: _174  and  _175
REMARK   72  A    between atoms: _181  and  _183
REMARK   73  A    between atoms: _183  and  _184
REMARK   74  A    between atoms: _183  and  _186
REMARK   75  A    between atoms: _186  and  _187
REMARK   76  A    between atoms: _190  and  _192
REMARK   77  A    between atoms: _192  and  _193
REMARK   78  A    between atoms: _192  and  _195
REMARK   79  A    between atoms: _195  and  _196
REMARK   80  A    between atoms: _201  and  _203
REMARK   81  A    between atoms: _203  and  _204
REMARK   82  A    between atoms: _203  and  _206
REMARK   83  A    between atoms: _206  and  _207
REMARK   84  A    between atoms: _211  and  FE_414
REMARK   85  A    between atoms: _212  and  _214
REMARK   86  A    between atoms: _214  and  _215
REMARK   87  A    between atoms: _214  and  _217
REMARK   88  A    between atoms: _217  and  _218
REMARK   89  A    between atoms: _224  and  _226
REMARK   90  A    between atoms: _226  and  _227
REMARK   91  A    between atoms: _226  and  _229
REMARK   92  A    between atoms: _229  and  _230
REMARK   93  A    between atoms: _230  and  _231
REMARK   94  A    between atoms: _233  and  _235
REMARK   95  A    between atoms: _235  and  _236
REMARK   96  A    between atoms: _235  and  _238
REMARK   97  A    between atoms: _238  and  _239
REMARK   98  A    between atoms: _241  and  _243
REMARK   99  A    between atoms: _243  and  _244
REMARK  100  A    between atoms: _243  and  _246
REMARK  101  A    between atoms: _246  and  _247
REMARK  102  A    between atoms: _247  and  _248
REMARK  103  A    between atoms: _248  and  _249
REMARK  104  A    between atoms: _258  and  _260
REMARK  105  A    between atoms: _260  and  _261
REMARK  106  A    between atoms: _260  and  _263
REMARK  107  A    between atoms: _263  and  _264
REMARK  108  A    between atoms: _269  and  _271
REMARK  109  A    between atoms: _271  and  _272
REMARK  110  A    between atoms: _271  and  _274
REMARK  111  A    between atoms: _274  and  _275
REMARK  112  A    between atoms: _278  and  _280
REMARK  113  A    between atoms: _280  and  _281
REMARK  114  A    between atoms: _280  and  _283
REMARK  115  A    between atoms: _283  and  _284
REMARK  116  A    between atoms: _289  and  _291
REMARK  117  A    between atoms: _291  and  _292
REMARK  118  A    between atoms: _291  and  _294
REMARK  119  A    between atoms: _294  and  _295
REMARK  120  A    between atoms: _298  and  _300
REMARK  121  A    between atoms: _300  and  _301
REMARK  122  A    between atoms: _300  and  _303
REMARK  123  A    between atoms: _303  and  _304
REMARK  124  A    between atoms: _309  and  _311
REMARK  125  A    between atoms: _311  and  _312
REMARK  126  A    between atoms: _311  and  _314
REMARK  127  A    between atoms: _314  and  _315
REMARK  128  A    between atoms: _315  and  _316
REMARK  129  A    between atoms: _318  and  _320
REMARK  130  A    between atoms: _320  and  _321
REMARK  131  A    between atoms: _320  and  _323
REMARK  132  A    between atoms: _323  and  _324
REMARK  133  A    between atoms: _326  and  _328
REMARK  134  A    between atoms: _328  and  _329
REMARK  135  A    between atoms: _328  and  _331
REMARK  136  A    between atoms: _331  and  _332
REMARK  137  A    between atoms: _337  and  _338
REMARK  138  A    between atoms: _340  and  _342
REMARK  139  A    between atoms: _342  and  _343
REMARK  140  A    between atoms: _342  and  _345
REMARK  141  A    between atoms: _345  and  _346
REMARK  142  A    between atoms: _346  and  _347
REMARK  143  A    between atoms: _350  and  _352
REMARK  144  A    between atoms: _352  and  _353
REMARK  145  A    between atoms: _352  and  _355
REMARK  146  A    between atoms: _355  and  _356
REMARK  147  A    between atoms: _356  and  _357
REMARK  148  A    between atoms: _357  and  _358
REMARK  149  A    between atoms: _358  and  FE_414
REMARK  150  A    between atoms: _360  and  _362
REMARK  151  A    between atoms: _362  and  _363
REMARK  152  A    between atoms: _362  and  _365
REMARK  153  A    between atoms: _365  and  _366
REMARK  154  A    between atoms: _371  and  _373
REMARK  155  A    between atoms: _373  and  _374
REMARK  156  A    between atoms: _373  and  _376
REMARK  157  A    between atoms: _376  and  _377
REMARK  158  A    between atoms: _380  and  _381
REMARK  159  A    between atoms: _386  and  _388
REMARK  160  A    between atoms: _388  and  _389
REMARK  161  A    between atoms: _388  and  _391
REMARK  162  A    between atoms: _391  and  _392
REMARK  163  A    between atoms: _394  and  _396
REMARK  164  A    between atoms: _396  and  _397
REMARK  165  A    between atoms: _396  and  _399
REMARK  166  A    between atoms: _399  and  _400
REMARK  167  A    between atoms: _400  and  _401
REMARK  168  A    between atoms: _403  and  _405
REMARK  169  A    between atoms: _405  and  _406
REMARK  170  A    between atoms: _405  and  _408
REMARK  171  A    between atoms: _408  and  _409
REMARK                            x       y       z     vdW  Elec       q    Type
REMARK                         _______ _______ _______ _____ _____    ______ ____
ROOT
ATOM      1  CA  GLU A   1      19.473  32.966  14.636  0.00  0.00    +0.134 C 
ENDROOT
BRANCH   1   2
ATOM      2  N   GLU A   1      19.679  33.652  15.900  0.00  0.00    -0.239 NA
ATOM      3  H   GLU A   1      20.117  33.150  16.699  0.00  0.00    +0.142 HD
ENDBRANCH   1   2
BRANCH   1   4
ATOM      4  C   GLU A   1      18.176  32.165  14.563  0.00  0.00    +0.224 C 
ATOM      5  O   GLU A   1      17.473  31.989  15.558  0.00  0.00    -0.287 OA
ENDBRANCH   1   4
BRANCH   1   6
ATOM      6  CB  GLU A   1      20.659  32.031  14.353  0.00  0.00    +0.037 C 
BRANCH   6   7
ATOM      7  CG  GLU A   1      21.973  32.756  14.037  0.00  0.00    +0.116 C 
BRANCH   7   8
ATOM      8  CD  GLU A   1      23.166  31.813  13.956  0.00  0.00    +0.365 C 
ATOM      9  OE2 GLU A   1      24.136  32.010  14.721  0.00  0.00    -0.246 OA
ATOM     10  OE1 GLU A   1      23.142  30.877  13.131  0.00  0.00    -0.246 OA
ENDBRANCH   7   8
ENDBRANCH   6   7
ENDBRANCH   1   6
TORSDOF 5
REMARK  Name = ../refined-set-2016/1lgt/1lgt_pocket.pdb
REMARK  171 active torsions:
REMARK  status: ('A' for Active; 'I' for Inactive)
REMARK    1  A    between atoms: _1  and  _3
REMARK    2  A    between atoms: _3  and  _4
REMARK    3  A    between atoms: _3  and  _6
REMARK    4  A    between atoms: _6  and  _7
REMARK    5  A    between atoms: _11  and  FE_414
REMARK    6  A    between atoms: _12  and  _14
REMARK    7  A    between atoms: _14  and  _15
REMARK    8  A    between atoms: _14  and  _17
REMARK    9  A    between atoms: _17  and  _18
REMARK   10  A    between atoms: _24  and  _26
REMARK   11  A    between atoms: _26  and  _27
REMARK   12  A    between atoms: _26  and  _29
REMARK   13  A    between atoms: _32  and  _34
REMARK   14  A    between atoms: _34  and  _35
REMARK   15  A    between atoms: _34  and  _37
REMARK   16  A    between atoms: _37  and  _38
REMARK   17  A    between atoms: _38  and  _39
REMARK   18  A    between atoms: _39  and  _40
REMARK   19  A    between atoms: _49  and  _51
REMARK   20  A    between atoms: _51  and  _52
REMARK   21  A    between atoms: _51  and  _54
REMARK   22  A    between atoms: _54  and  _55
REMARK   23  A    between atoms: _58  and  _60
REMARK   24  A    between atoms: _60  and  _61
REMARK   25  A    between atoms: _60  and  _63
REMARK   26  A    between atoms: _63  and  _64
REMARK   27  A    between atoms: _67  and  _69
REMARK   28  A    between atoms: _69  and  _70
REMARK   29  A    between atoms: _69  and  _72
REMARK   30  A    between atoms: _72  and  _73
REMARK   31  A    between atoms: _73  and  _74
REMARK   32  A    between atoms: _76  and  _78
REMARK   33  A    between atoms: _78  and  _79
REMARK   34  A    between atoms: _78  and  _81
REMARK   35  A    between atoms: _81  and  _82
REMARK   36  A    between atoms: _82  and  _83
REMARK   37  A    between atoms: _85  and  _87
REMARK   38  A    between atoms: _87  and  _88
REMARK   39  A    between atoms: _91  and  _93
REMARK   40  A    between atoms: _93  and  _94
REMARK   41  A    between atoms: _93  and  _96
REMARK   42  A    between atoms: _96  and  _97
REMARK   43  A    between atoms: _102  and  _103
REMARK   44  A    between atoms: _105  and  _107
REMARK   45  A    between atoms: _107  and  _108
REMARK   46  A    between atoms: _107  and  _110
REMARK   47  A    between atoms: _110  and  _111
REMARK   48  A    between atoms: _117  and  _119
REMARK   49  A    between atoms: _119  and  _120
REMARK   50  A    between atoms: _119  and  _122
REMARK   51  A    between atoms: _122  and  _123
REMARK   52  A    between atoms: _128  and  _130
REMARK   53  A    between atoms: _130  and  _131
REMARK   54  A    between atoms: _130  and  _133
REMARK   55  A    between atoms: _133  and  _134
REMARK   56  A    between atoms: _139  and  _141
REMARK   57  A    between atoms: _141  and  _142
REMARK   58  A    between atoms: _141  and  _144
REMARK   59  A    between atoms: _144  and  _145
REMARK   60  A    between atoms: _148  and  _150
REMARK   61  A    between atoms: _150  and  _151
REMARK   62  A    between atoms: _154  and  _156
REMARK   63  A    between atoms: _156  and  _157
REMARK   64  A    between atoms: _156  and  _159
REMARK   65  A    between atoms: _159  and  _160
REMARK   66  A    between atoms: _163  and  _165
REMARK   67  A    between atoms: _165  and  _166
REMARK   68  A    between atoms: _169  and  _171
REMARK   69  A    between atoms: _171  and  _172
REMARK   70  A    between atoms: _171  and  _174
REMARK   71  A    between atoms: _174  and  _175
REMARK   72  A    between atoms: _181  and  _183
REMARK   73  A    between atoms: _183  and  _184
REMARK   74  A    between atoms: _183  and  _186
REMARK   75  A    between atoms: _186  and  _187
REMARK   76  A    between atoms: _190  and  _192
REMARK   77  A    between atoms: _192  and  _193
REMARK   78  A    between atoms: _192  and  _195
REMARK   79  A    between atoms: _195  and  _196
REMARK   80  A    between atoms: _201  and  _203
REMARK   81  A    between atoms: _203  and  _204
REMARK   82  A    between atoms: _203  and  _206
REMARK   83  A    between atoms: _206  and  _207
REMARK   84  A    between atoms: _211  and  FE_414
REMARK   85  A    between atoms: _212  and  _214
REMARK   86  A    between atoms: _214  and  _215
REMARK   87  A    between atoms: _214  and  _217
REMARK   88  A    between atoms: _217  and  _218
REMARK   89  A    between atoms: _224  and  _226
REMARK   90  A    between atoms: _226  and  _227
REMARK   91  A    between atoms: _226  and  _229
REMARK   92  A    between atoms: _229  and  _230
REMARK   93  A    between atoms: _230  and  _231
REMARK   94  A    between atoms: _233  and  _235
REMARK   95  A    between atoms: _235  and  _236
REMARK   96  A    between atoms: _235  and  _238
REMARK   97  A    between atoms: _238  and  _239
REMARK   98  A    between atoms: _241  and  _243
REMARK   99  A    between atoms: _243  and  _244
REMARK  100  A    between atoms: _243  and  _246
REMARK  101  A    between atoms: _246  and  _247
REMARK  102  A    between atoms: _247  and  _248
REMARK  103  A    between atoms: _248  and  _249
REMARK  104  A    between atoms: _258  and  _260
REMARK  105  A    between atoms: _260  and  _261
REMARK  106  A    between atoms: _260  and  _263
REMARK  107  A    between atoms: _263  and  _264
REMARK  108  A    between atoms: _269  and  _271
REMARK  109  A    between atoms: _271  and  _272
REMARK  110  A    between atoms: _271  and  _274
REMARK  111  A    between atoms: _274  and  _275
REMARK  112  A    between atoms: _278  and  _280
REMARK  113  A    between atoms: _280  and  _281
REMARK  114  A    between atoms: _280  and  _283
REMARK  115  A    between atoms: _283  and  _284
REMARK  116  A    between atoms: _289  and  _291
REMARK  117  A    between atoms: _291  and  _292
REMARK  118  A    between atoms: _291  and  _294
REMARK  119  A    between atoms: _294  and  _295
REMARK  120  A    between atoms: _298  and  _300
REMARK  121  A    between atoms: _300  and  _301
REMARK  122  A    between atoms: _300  and  _303
REMARK  123  A    between atoms: _303  and  _304
REMARK  124  A    between atoms: _309  and  _311
REMARK  125  A    between atoms: _311  and  _312
REMARK  126  A    between atoms: _311  and  _314
REMARK  127  A    between atoms: _314  and  _315
REMARK  128  A    between atoms: _315  and  _316
REMARK  129  A    between atoms: _318  and  _320
REMARK  130  A    between atoms: _320  and  _321
REMARK  131  A    between atoms: _320  and  _323
REMARK  132  A    between atoms: _323  and  _324
REMARK  133  A    between atoms: _326  and  _328
REMARK  134  A    between atoms: _328  and  _329
REMARK  135  A    between atoms: _328  and  _331
REMARK  136  A    between atoms: _331  and  _332
REMARK  137  A    between atoms: _337  and  _338
REMARK  138  A    between atoms: _340  and  _342
REMARK  139  A    between atoms: _342  and  _343
REMARK  140  A    between atoms: _342  and  _345
REMARK  141  A    between atoms: _345  and  _346
REMARK  142  A    between atoms: _346  and  _347
REMARK  143  A    between atoms: _350  and  _352
REMARK  144  A    between atoms: _352  and  _353
REMARK  145  A    between atoms: _352  and  _355
REMARK  146  A    between atoms: _355  and  _356
REMARK  147  A    between atoms: _356  and  _357
REMARK  148  A    between atoms: _357  and  _358
REMARK  149  A    between atoms: _358  and  FE_414
REMARK  150  A    between atoms: _360  and  _362
REMARK  151  A    between atoms: _362  and  _363
REMARK  152  A    between atoms: _362  and  _365
REMARK  153  A    between atoms: _365  and  _366
REMARK  154  A    between atoms: _371  and  _373
REMARK  155  A    between atoms: _373  and  _374
REMARK  156  A    between atoms: _373  and  _376
REMARK  157  A    between atoms: _376  and  _377
REMARK  158  A    between atoms: _380  and  _381
REMARK  159  A    between atoms: _386  and  _388
REMARK  160  A    between atoms: _388  and  _389
REMARK  161  A    between atoms: _388  and  _391
REMARK  162  A    between atoms: _391  and  _392
REMARK  163  A    between atoms: _394  and  _396
REMARK  164  A    between atoms: _396  and  _397
REMARK  165  A    between atoms: _396  and  _399
REMARK  166  A    between atoms: _399  and  _400
REMARK  167  A    between atoms: _400  and  _401
REMARK  168  A    between atoms: _403  and  _405
REMARK  169  A    between atoms: _405  and  _406
REMARK  170  A    between atoms: _405  and  _408
REMARK  171  A    between atoms: _408  and  _409
REMARK                            x       y       z     vdW  Elec       q    Type
REMARK                         _______ _______ _______ _____ _____    ______ ____
ROOT
ATOM      1  CB  HIS A   1      27.091  13.351  18.283  0.00  0.00    +0.072 C 
ENDROOT
BRANCH   1   2
ATOM      2  CG  HIS A   1      25.830  12.588  18.038  0.00  0.00    +0.082 A 
ATOM      3  CD2 HIS A   1      24.726  12.418  18.805  0.00  0.00    +0.115 A 
ATOM      4  NE2 HIS A   1      23.830  11.681  18.067  0.00  0.00    -0.221 NA
ATOM      5  CE1 HIS A   1      24.367  11.405  16.892  0.00  0.00    +0.199 A 
ATOM      6  ND1 HIS A   1      25.575  11.939  16.850  0.00  0.00    -0.227 NA
ENDBRANCH   1   2
BRANCH   1   7
ATOM      7  CA  HIS A   1      28.103  12.635  19.181  0.00  0.00    +0.139 C 
BRANCH   7   8
ATOM      8  N   HIS A   1      27.520  12.314  20.481  0.00  0.00    -0.239 NA
ATOM      9  H   HIS A   1      27.373  13.081  21.168  0.00  0.00    +0.142 HD
ENDBRANCH   7   8
BRANCH   7  10
ATOM     10  C   HIS A   1      29.250  13.601  19.406  0.00  0.00    +0.224 C 
ATOM     11  O   HIS A   1      29.270  14.310  20.411  0.00  0.00    -0.287 OA
ENDBRANCH   7  10
ENDBRANCH   1   7
TORSDOF 4
REMARK  Name = ../refined-set-2016/1lgt/1lgt_pocket.pdb
REMARK  171 active torsions:
REMARK  status: ('A' for Active; 'I' for Inactive)
REMARK    1  A    between atoms: _1  and  _3
REMARK    2  A    between atoms: _3  and  _4
REMARK    3  A    between atoms: _3  and  _6
REMARK    4  A    between atoms: _6  and  _7
REMARK    5  A    between atoms: _11  and  FE_414
REMARK    6  A    between atoms: _12  and  _14
REMARK    7  A    between atoms: _14  and  _15
REMARK    8  A    between atoms: _14  and  _17
REMARK    9  A    between atoms: _17  and  _18
REMARK   10  A    between atoms: _24  and  _26
REMARK   11  A    between atoms: _26  and  _27
REMARK   12  A    between atoms: _26  and  _29
REMARK   13  A    between atoms: _32  and  _34
REMARK   14  A    between atoms: _34  and  _35
REMARK   15  A    between atoms: _34  and  _37
REMARK   16  A    between atoms: _37  and  _38
REMARK   17  A    between atoms: _38  and  _39
REMARK   18  A    between atoms: _39  and  _40
REMARK   19  A    between atoms: _49  and  _51
REMARK   20  A    between atoms: _51  and  _52
REMARK   21  A    between atoms: _51  and  _54
REMARK   22  A    between atoms: _54  and  _55
REMARK   23  A    between atoms: _58  and  _60
REMARK   24  A    between atoms: _60  and  _61
REMARK   25  A    between atoms: _60  and  _63
REMARK   26  A    between atoms: _63  and  _64
REMARK   27  A    between atoms: _67  and  _69
REMARK   28  A    between atoms: _69  and  _70
REMARK   29  A    between atoms: _69  and  _72
REMARK   30  A    between atoms: _72  and  _73
REMARK   31  A    between atoms: _73  and  _74
REMARK   32  A    between atoms: _76  and  _78
REMARK   33  A    between atoms: _78  and  _79
REMARK   34  A    between atoms: _78  and  _81
REMARK   35  A    between atoms: _81  and  _82
REMARK   36  A    between atoms: _82  and  _83
REMARK   37  A    between atoms: _85  and  _87
REMARK   38  A    between atoms: _87  and  _88
REMARK   39  A    between atoms: _91  and  _93
REMARK   40  A    between atoms: _93  and  _94
REMARK   41  A    between atoms: _93  and  _96
REMARK   42  A    between atoms: _96  and  _97
REMARK   43  A    between atoms: _102  and  _103
REMARK   44  A    between atoms: _105  and  _107
REMARK   45  A    between atoms: _107  and  _108
REMARK   46  A    between atoms: _107  and  _110
REMARK   47  A    between atoms: _110  and  _111
REMARK   48  A    between atoms: _117  and  _119
REMARK   49  A    between atoms: _119  and  _120
REMARK   50  A    between atoms: _119  and  _122
REMARK   51  A    between atoms: _122  and  _123
REMARK   52  A    between atoms: _128  and  _130
REMARK   53  A    between atoms: _130  and  _131
REMARK   54  A    between atoms: _130  and  _133
REMARK   55  A    between atoms: _133  and  _134
REMARK   56  A    between atoms: _139  and  _141
REMARK   57  A    between atoms: _141  and  _142
REMARK   58  A    between atoms: _141  and  _144
REMARK   59  A    between atoms: _144  and  _145
REMARK   60  A    between atoms: _148  and  _150
REMARK   61  A    between atoms: _150  and  _151
REMARK   62  A    between atoms: _154  and  _156
REMARK   63  A    between atoms: _156  and  _157
REMARK   64  A    between atoms: _156  and  _159
REMARK   65  A    between atoms: _159  and  _160
REMARK   66  A    between atoms: _163  and  _165
REMARK   67  A    between atoms: _165  and  _166
REMARK   68  A    between atoms: _169  and  _171
REMARK   69  A    between atoms: _171  and  _172
REMARK   70  A    between atoms: _171  and  _174
REMARK   71  A    between atoms: _174  and  _175
REMARK   72  A    between atoms: _181  and  _183
REMARK   73  A    between atoms: _183  and  _184
REMARK   74  A    between atoms: _183  and  _186
REMARK   75  A    between atoms: _186  and  _187
REMARK   76  A    between atoms: _190  and  _192
REMARK   77  A    between atoms: _192  and  _193
REMARK   78  A    between atoms: _192  and  _195
REMARK   79  A    between atoms: _195  and  _196
REMARK   80  A    between atoms: _201  and  _203
REMARK   81  A    between atoms: _203  and  _204
REMARK   82  A    between atoms: _203  and  _206
REMARK   83  A    between atoms: _206  and  _207
REMARK   84  A    between atoms: _211  and  FE_414
REMARK   85  A    between atoms: _212  and  _214
REMARK   86  A    between atoms: _214  and  _215
REMARK   87  A    between atoms: _214  and  _217
REMARK   88  A    between atoms: _217  and  _218
REMARK   89  A    between atoms: _224  and  _226
REMARK   90  A    between atoms: _226  and  _227
REMARK   91  A    between atoms: _226  and  _229
REMARK   92  A    between atoms: _229  and  _230
REMARK   93  A    between atoms: _230  and  _231
REMARK   94  A    between atoms: _233  and  _235
REMARK   95  A    between atoms: _235  and  _236
REMARK   96  A    between atoms: _235  and  _238
REMARK   97  A    between atoms: _238  and  _239
REMARK   98  A    between atoms: _241  and  _243
REMARK   99  A    between atoms: _243  and  _244
REMARK  100  A    between atoms: _243  and  _246
REMARK  101  A    between atoms: _246  and  _247
REMARK  102  A    between atoms: _247  and  _248
REMARK  103  A    between atoms: _248  and  _249
REMARK  104  A    between atoms: _258  and  _260
REMARK  105  A    between atoms: _260  and  _261
REMARK  106  A    between atoms: _260  and  _263
REMARK  107  A    between atoms: _263  and  _264
REMARK  108  A    between atoms: _269  and  _271
REMARK  109  A    between atoms: _271  and  _272
REMARK  110  A    between atoms: _271  and  _274
REMARK  111  A    between atoms: _274  and  _275
REMARK  112  A    between atoms: _278  and  _280
REMARK  113  A    between atoms: _280  and  _281
REMARK  114  A    between atoms: _280  and  _283
REMARK  115  A    between atoms: _283  and  _284
REMARK  116  A    between atoms: _289  and  _291
REMARK  117  A    between atoms: _291  and  _292
REMARK  118  A    between atoms: _291  and  _294
REMARK  119  A    between atoms: _294  and  _295
REMARK  120  A    between atoms: _298  and  _300
REMARK  121  A    between atoms: _300  and  _301
REMARK  122  A    between atoms: _300  and  _303
REMARK  123  A    between atoms: _303  and  _304
REMARK  124  A    between atoms: _309  and  _311
REMARK  125  A    between atoms: _311  and  _312
REMARK  126  A    between atoms: _311  and  _314
REMARK  127  A    between atoms: _314  and  _315
REMARK  128  A    between atoms: _315  and  _316
REMARK  129  A    between atoms: _318  and  _320
REMARK  130  A    between atoms: _320  and  _321
REMARK  131  A    between atoms: _320  and  _323
REMARK  132  A    between atoms: _323  and  _324
REMARK  133  A    between atoms: _326  and  _328
REMARK  134  A    between atoms: _328  and  _329
REMARK  135  A    between atoms: _328  and  _331
REMARK  136  A    between atoms: _331  and  _332
REMARK  137  A    between atoms: _337  and  _338
REMARK  138  A    between atoms: _340  and  _342
REMARK  139  A    between atoms: _342  and  _343
REMARK  140  A    between atoms: _342  and  _345
REMARK  141  A    between atoms: _345  and  _346
REMARK  142  A    between atoms: _346  and  _347
REMARK  143  A    between atoms: _350  and  _352
REMARK  144  A    between atoms: _352  and  _353
REMARK  145  A    between atoms: _352  and  _355
REMARK  146  A    between atoms: _355  and  _356
REMARK  147  A    between atoms: _356  and  _357
REMARK  148  A    between atoms: _357  and  _358
REMARK  149  A    between atoms: _358  and  FE_414
REMARK  150  A    between atoms: _360  and  _362
REMARK  151  A    between atoms: _362  and  _363
REMARK  152  A    between atoms: _362  and  _365
REMARK  153  A    between atoms: _365  and  _366
REMARK  154  A    between atoms: _371  and  _373
REMARK  155  A    between atoms: _373  and  _374
REMARK  156  A    between atoms: _373  and  _376
REMARK  157  A    between atoms: _376  and  _377
REMARK  158  A    between atoms: _380  and  _381
REMARK  159  A    between atoms: _386  and  _388
REMARK  160  A    between atoms: _388  and  _389
REMARK  161  A    between atoms: _388  and  _391
REMARK  162  A    between atoms: _391  and  _392
REMARK  163  A    between atoms: _394  and  _396
REMARK  164  A    between atoms: _396  and  _397
REMARK  165  A    between atoms: _396  and  _399
REMARK  166  A    between atoms: _399  and  _400
REMARK  167  A    between atoms: _400  and  _401
REMARK  168  A    between atoms: _403  and  _405
REMARK  169  A    between atoms: _405  and  _406
REMARK  170  A    between atoms: _405  and  _408
REMARK  171  A    between atoms: _408  and  _409
REMARK                            x       y       z     vdW  Elec       q    Type
REMARK                         _______ _______ _______ _____ _____    ______ ____
ROOT
ATOM      1  C   PRO A   2      25.996  18.074  13.679  0.00  0.00    +0.000 C 
ATOM      2  O   PRO A   2      24.781  18.057  13.484  0.00  0.00    +0.000 OA
ATOM      3  N   SER A   3      26.880  17.903  12.699  0.00  0.00    +0.000 N 
ATOM      4  H   SER A   3      27.897  17.896  12.917  0.00  0.00    +0.000 HD
ENDROOT
BRANCH   1  11
ATOM      5  C   SER A   1      28.385  16.758  15.508  0.00  0.00    +0.000 C 
ATOM      6  O   SER A   1      27.588  15.835  15.705  0.00  0.00    +0.000 OA
ATOM      7  N   PRO A   2      27.978  17.997  15.204  0.00  0.00    +0.000 N 
ATOM      8  CD  PRO A   2      28.773  19.241  15.226  0.00  0.00    +0.000 C 
ATOM      9  CG  PRO A   2      27.732  20.309  14.873  0.00  0.00    +0.000 C 
ATOM     10  CB  PRO A   2      26.480  19.761  15.500  0.00  0.00    +0.000 C 
ATOM     11  CA  PRO A   2      26.548  18.296  15.089  0.00  0.00    +0.000 C 
BRANCH   5  12
ATOM     12  CA  SER A   1      29.888  16.523  15.608  0.00  0.00    +0.000 C 
BRANCH  12  13
ATOM     13  N   SER A   1      30.144  15.555  16.662  0.00  0.00    +0.000 NA
ATOM     14  H   SER A   1      29.476  14.769  16.795  0.00  0.00    +0.000 HD
ENDBRANCH  12  13
BRANCH  12  15
ATOM     15  CB  SER A   1      30.406  16.014  14.264  0.00  0.00    +0.000 C 
BRANCH  15  16
ATOM     16  OG  SER A   1      29.998  16.880  13.217  0.00  0.00    +0.000 OA
ATOM     17  H   SER A   1      30.360  17.787  13.380  0.00  0.00    +0.000 HD
ENDBRANCH  15  16
ENDBRANCH  12  15
ENDBRANCH   5  12
ENDBRANCH   1  11
BRANCH   3  18
ATOM     18  CA  SER A   3      26.433  17.725  11.321  0.00  0.00    +0.000 C 
BRANCH  18  19
ATOM     19  C   SER A   3      27.078  16.572  10.555  0.00  0.00    +0.000 C 
ATOM     20  O   SER A   3      28.297  16.385  10.599  0.00  0.00    +0.000 OA
ATOM     21  N   MET A   4      26.249  15.798   9.857  0.00  0.00    +0.000 N 
ATOM     22  H   MET A   4      25.228  15.995   9.887  0.00  0.00    +0.000 HD
BRANCH  21  23
ATOM     23  CA  MET A   4      26.733  14.679   9.049  0.00  0.00    +0.000 C 
BRANCH  23  24
ATOM     24  C   MET A   4      27.428  15.262   7.830  0.00  0.00    +0.000 C 
ATOM     25  O   MET A   4      28.495  14.799   7.426  0.00  0.00    +0.000 OA
ENDBRANCH  23  24
BRANCH  23  26
ATOM     26  CB  MET A   4      25.568  13.809   8.582  0.00  0.00    +0.000 C 
BRANCH  26  27
ATOM     27  CG  MET A   4      24.903  13.016   9.670  0.00  0.00    +0.000 C 
BRANCH  27  28
ATOM     28  SD  MET A   4      23.373  12.279   9.058  0.00  0.00    +0.000 S 
ATOM     29  CE  MET A   4      23.878  11.626   7.571  0.00  0.00    +0.000 C 
ENDBRANCH  27  28
ENDBRANCH  26  27
ENDBRANCH  23  26
ENDBRANCH  21  23
ENDBRANCH  18  19
BRANCH  18  30
ATOM     30  CB  SER A   3      26.652  19.029  10.546  0.00  0.00    +0.000 C 
BRANCH  30  31
ATOM     31  OG  SER A   3      25.994  20.108  11.192  0.00  0.00    +0.000 OA
ATOM     32  H   SER A   3      25.023  19.920  11.239  0.00  0.00    +0.000 HD
ENDBRANCH  30  31
ENDBRANCH  18  30
ENDBRANCH   3  18
TORSDOF 14
REMARK  Name = ../refined-set-2016/1lgt/1lgt_pocket.pdb
REMARK  171 active torsions:
REMARK  status: ('A' for Active; 'I' for Inactive)
REMARK    1  A    between atoms: _1  and  _3
REMARK    2  A    between atoms: _3  and  _4
REMARK    3  A    between atoms: _3  and  _6
REMARK    4  A    between atoms: _6  and  _7
REMARK    5  A    between atoms: _11  and  FE_414
REMARK    6  A    between atoms: _12  and  _14
REMARK    7  A    between atoms: _14  and  _15
REMARK    8  A    between atoms: _14  and  _17
REMARK    9  A    between atoms: _17  and  _18
REMARK   10  A    between atoms: _24  and  _26
REMARK   11  A    between atoms: _26  and  _27
REMARK   12  A    between atoms: _26  and  _29
REMARK   13  A    between atoms: _32  and  _34
REMARK   14  A    between atoms: _34  and  _35
REMARK   15  A    between atoms: _34  and  _37
REMARK   16  A    between atoms: _37  and  _38
REMARK   17  A    between atoms: _38  and  _39
REMARK   18  A    between atoms: _39  and  _40
REMARK   19  A    between atoms: _49  and  _51
REMARK   20  A    between atoms: _51  and  _52
REMARK   21  A    between atoms: _51  and  _54
REMARK   22  A    between atoms: _54  and  _55
REMARK   23  A    between atoms: _58  and  _60
REMARK   24  A    between atoms: _60  and  _61
REMARK   25  A    between atoms: _60  and  _63
REMARK   26  A    between atoms: _63  and  _64
REMARK   27  A    between atoms: _67  and  _69
REMARK   28  A    between atoms: _69  and  _70
REMARK   29  A    between atoms: _69  and  _72
REMARK   30  A    between atoms: _72  and  _73
REMARK   31  A    between atoms: _73  and  _74
REMARK   32  A    between atoms: _76  and  _78
REMARK   33  A    between atoms: _78  and  _79
REMARK   34  A    between atoms: _78  and  _81
REMARK   35  A    between atoms: _81  and  _82
REMARK   36  A    between atoms: _82  and  _83
REMARK   37  A    between atoms: _85  and  _87
REMARK   38  A    between atoms: _87  and  _88
REMARK   39  A    between atoms: _91  and  _93
REMARK   40  A    between atoms: _93  and  _94
REMARK   41  A    between atoms: _93  and  _96
REMARK   42  A    between atoms: _96  and  _97
REMARK   43  A    between atoms: _102  and  _103
REMARK   44  A    between atoms: _105  and  _107
REMARK   45  A    between atoms: _107  and  _108
REMARK   46  A    between atoms: _107  and  _110
REMARK   47  A    between atoms: _110  and  _111
REMARK   48  A    between atoms: _117  and  _119
REMARK   49  A    between atoms: _119  and  _120
REMARK   50  A    between atoms: _119  and  _122
REMARK   51  A    between atoms: _122  and  _123
REMARK   52  A    between atoms: _128  and  _130
REMARK   53  A    between atoms: _130  and  _131
REMARK   54  A    between atoms: _130  and  _133
REMARK   55  A    between atoms: _133  and  _134
REMARK   56  A    between atoms: _139  and  _141
REMARK   57  A    between atoms: _141  and  _142
REMARK   58  A    between atoms: _141  and  _144
REMARK   59  A    between atoms: _144  and  _145
REMARK   60  A    between atoms: _148  and  _150
REMARK   61  A    between atoms: _150  and  _151
REMARK   62  A    between atoms: _154  and  _156
REMARK   63  A    between atoms: _156  and  _157
REMARK   64  A    between atoms: _156  and  _159
REMARK   65  A    between atoms: _159  and  _160
REMARK   66  A    between atoms: _163  and  _165
REMARK   67  A    between atoms: _165  and  _166
REMARK   68  A    between atoms: _169  and  _171
REMARK   69  A    between atoms: _171  and  _172
REMARK   70  A    between atoms: _171  and  _174
REMARK   71  A    between atoms: _174  and  _175
REMARK   72  A    between atoms: _181  and  _183
REMARK   73  A    between atoms: _183  and  _184
REMARK   74  A    between atoms: _183  and  _186
REMARK   75  A    between atoms: _186  and  _187
REMARK   76  A    between atoms: _190  and  _192
REMARK   77  A    between atoms: _192  and  _193
REMARK   78  A    between atoms: _192  and  _195
REMARK   79  A    between atoms: _195  and  _196
REMARK   80  A    between atoms: _201  and  _203
REMARK   81  A    between atoms: _203  and  _204
REMARK   82  A    between atoms: _203  and  _206
REMARK   83  A    between atoms: _206  and  _207
REMARK   84  A    between atoms: _211  and  FE_414
REMARK   85  A    between atoms: _212  and  _214
REMARK   86  A    between atoms: _214  and  _215
REMARK   87  A    between atoms: _214  and  _217
REMARK   88  A    between atoms: _217  and  _218
REMARK   89  A    between atoms: _224  and  _226
REMARK   90  A    between atoms: _226  and  _227
REMARK   91  A    between atoms: _226  and  _229
REMARK   92  A    between atoms: _229  and  _230
REMARK   93  A    between atoms: _230  and  _231
REMARK   94  A    between atoms: _233  and  _235
REMARK   95  A    between atoms: _235  and  _236
REMARK   96  A    between atoms: _235  and  _238
REMARK   97  A    between atoms: _238  and  _239
REMARK   98  A    between atoms: _241  and  _243
REMARK   99  A    between atoms: _243  and  _244
REMARK  100  A    between atoms: _243  and  _246
REMARK  101  A    between atoms: _246  and  _247
REMARK  102  A    between atoms: _247  and  _248
REMARK  103  A    between atoms: _248  and  _249
REMARK  104  A    between atoms: _258  and  _260
REMARK  105  A    between atoms: _260  and  _261
REMARK  106  A    between atoms: _260  and  _263
REMARK  107  A    between atoms: _263  and  _264
REMARK  108  A    between atoms: _269  and  _271
REMARK  109  A    between atoms: _271  and  _272
REMARK  110  A    between atoms: _271  and  _274
REMARK  111  A    between atoms: _274  and  _275
REMARK  112  A    between atoms: _278  and  _280
REMARK  113  A    between atoms: _280  and  _281
REMARK  114  A    between atoms: _280  and  _283
REMARK  115  A    between atoms: _283  and  _284
REMARK  116  A    between atoms: _289  and  _291
REMARK  117  A    between atoms: _291  and  _292
REMARK  118  A    between atoms: _291  and  _294
REMARK  119  A    between atoms: _294  and  _295
REMARK  120  A    between atoms: _298  and  _300
REMARK  121  A    between atoms: _300  and  _301
REMARK  122  A    between atoms: _300  and  _303
REMARK  123  A    between atoms: _303  and  _304
REMARK  124  A    between atoms: _309  and  _311
REMARK  125  A    between atoms: _311  and  _312
REMARK  126  A    between atoms: _311  and  _314
REMARK  127  A    between atoms: _314  and  _315
REMARK  128  A    between atoms: _315  and  _316
REMARK  129  A    between atoms: _318  and  _320
REMARK  130  A    between atoms: _320  and  _321
REMARK  131  A    between atoms: _320  and  _323
REMARK  132  A    between atoms: _323  and  _324
REMARK  133  A    between atoms: _326  and  _328
REMARK  134  A    between atoms: _328  and  _329
REMARK  135  A    between atoms: _328  and  _331
REMARK  136  A    between atoms: _331  and  _332
REMARK  137  A    between atoms: _337  and  _338
REMARK  138  A    between atoms: _340  and  _342
REMARK  139  A    between atoms: _342  and  _343
REMARK  140  A    between atoms: _342  and  _345
REMARK  141  A    between atoms: _345  and  _346
REMARK  142  A    between atoms: _346  and  _347
REMARK  143  A    between atoms: _350  and  _352
REMARK  144  A    between atoms: _352  and  _353
REMARK  145  A    between atoms: _352  and  _355
REMARK  146  A    between atoms: _355  and  _356
REMARK  147  A    between atoms: _356  and  _357
REMARK  148  A    between atoms: _357  and  _358
REMARK  149  A    between atoms: _358  and  FE_414
REMARK  150  A    between atoms: _360  and  _362
REMARK  151  A    between atoms: _362  and  _363
REMARK  152  A    between atoms: _362  and  _365
REMARK  153  A    between atoms: _365  and  _366
REMARK  154  A    between atoms: _371  and  _373
REMARK  155  A    between atoms: _373  and  _374
REMARK  156  A    between atoms: _373  and  _376
REMARK  157  A    between atoms: _376  and  _377
REMARK  158  A    between atoms: _380  and  _381
REMARK  159  A    between atoms: _386  and  _388
REMARK  160  A    between atoms: _388  and  _389
REMARK  161  A    between atoms: _388  and  _391
REMARK  162  A    between atoms: _391  and  _392
REMARK  163  A    between atoms: _394  and  _396
REMARK  164  A    between atoms: _396  and  _397
REMARK  165  A    between atoms: _396  and  _399
REMARK  166  A    between atoms: _399  and  _400
REMARK  167  A    between atoms: _400  and  _401
REMARK  168  A    between atoms: _403  and  _405
REMARK  169  A    between atoms: _405  and  _406
REMARK  170  A    between atoms: _405  and  _408
REMARK  171  A    between atoms: _408  and  _409
REMARK                            x       y       z     vdW  Elec       q    Type
REMARK                         _______ _______ _______ _____ _____    ______ ____
ROOT
ATOM      1  CB  HIS A   1      25.878  22.546   8.999  0.00  0.00    +0.000 C 
ENDROOT
BRANCH   1   2
ATOM      2  CG  HIS A   1      24.417  22.224   9.109  0.00  0.00    +0.000 A 
ATOM      3  ND1 HIS A   1      23.943  21.156   9.843  0.00  0.00    +0.000 NA
ATOM      4  CE1 HIS A   1      22.623  21.137   9.788  0.00  0.00    +0.000 A 
ATOM      5  NE2 HIS A   1      22.222  22.154   9.046  0.00  0.00    +0.000 NA
ATOM      6  CD2 HIS A   1      23.324  22.849   8.608  0.00  0.00    +0.000 A 
ENDBRANCH   1   2
BRANCH   1   7
ATOM      7  CA  HIS A   1      26.247  23.318   7.727  0.00  0.00    +0.000 C 
BRANCH   7   8
ATOM      8  N   HIS A   1      26.285  22.431   6.569  0.00  0.00    +0.000 NA
ATOM      9  H   HIS A   1      25.608  22.586   5.795  0.00  0.00    +0.000 HD
ENDBRANCH   7   8
BRANCH   7  10
ATOM     10  C   HIS A   1      27.596  24.009   7.896  0.00  0.00    +0.000 C 
ATOM     11  O   HIS A   1      28.123  24.120   9.000  0.00  0.00    +0.000 OA
ENDBRANCH   7  10
ENDBRANCH   1   7
TORSDOF 4
REMARK  Name = ../refined-set-2016/1lgt/1lgt_pocket.pdb
REMARK  171 active torsions:
REMARK  status: ('A' for Active; 'I' for Inactive)
REMARK    1  A    between atoms: _1  and  _3
REMARK    2  A    between atoms: _3  and  _4
REMARK    3  A    between atoms: _3  and  _6
REMARK    4  A    between atoms: _6  and  _7
REMARK    5  A    between atoms: _11  and  FE_414
REMARK    6  A    between atoms: _12  and  _14
REMARK    7  A    between atoms: _14  and  _15
REMARK    8  A    between atoms: _14  and  _17
REMARK    9  A    between atoms: _17  and  _18
REMARK   10  A    between atoms: _24  and  _26
REMARK   11  A    between atoms: _26  and  _27
REMARK   12  A    between atoms: _26  and  _29
REMARK   13  A    between atoms: _32  and  _34
REMARK   14  A    between atoms: _34  and  _35
REMARK   15  A    between atoms: _34  and  _37
REMARK   16  A    between atoms: _37  and  _38
REMARK   17  A    between atoms: _38  and  _39
REMARK   18  A    between atoms: _39  and  _40
REMARK   19  A    between atoms: _49  and  _51
REMARK   20  A    between atoms: _51  and  _52
REMARK   21  A    between atoms: _51  and  _54
REMARK   22  A    between atoms: _54  and  _55
REMARK   23  A    between atoms: _58  and  _60
REMARK   24  A    between atoms: _60  and  _61
REMARK   25  A    between atoms: _60  and  _63
REMARK   26  A    between atoms: _63  and  _64
REMARK   27  A    between atoms: _67  and  _69
REMARK   28  A    between atoms: _69  and  _70
REMARK   29  A    between atoms: _69  and  _72
REMARK   30  A    between atoms: _72  and  _73
REMARK   31  A    between atoms: _73  and  _74
REMARK   32  A    between atoms: _76  and  _78
REMARK   33  A    between atoms: _78  and  _79
REMARK   34  A    between atoms: _78  and  _81
REMARK   35  A    between atoms: _81  and  _82
REMARK   36  A    between atoms: _82  and  _83
REMARK   37  A    between atoms: _85  and  _87
REMARK   38  A    between atoms: _87  and  _88
REMARK   39  A    between atoms: _91  and  _93
REMARK   40  A    between atoms: _93  and  _94
REMARK   41  A    between atoms: _93  and  _96
REMARK   42  A    between atoms: _96  and  _97
REMARK   43  A    between atoms: _102  and  _103
REMARK   44  A    between atoms: _105  and  _107
REMARK   45  A    between atoms: _107  and  _108
REMARK   46  A    between atoms: _107  and  _110
REMARK   47  A    between atoms: _110  and  _111
REMARK   48  A    between atoms: _117  and  _119
REMARK   49  A    between atoms: _119  and  _120
REMARK   50  A    between atoms: _119  and  _122
REMARK   51  A    between atoms: _122  and  _123
REMARK   52  A    between atoms: _128  and  _130
REMARK   53  A    between atoms: _130  and  _131
REMARK   54  A    between atoms: _130  and  _133
REMARK   55  A    between atoms: _133  and  _134
REMARK   56  A    between atoms: _139  and  _141
REMARK   57  A    between atoms: _141  and  _142
REMARK   58  A    between atoms: _141  and  _144
REMARK   59  A    between atoms: _144  and  _145
REMARK   60  A    between atoms: _148  and  _150
REMARK   61  A    between atoms: _150  and  _151
REMARK   62  A    between atoms: _154  and  _156
REMARK   63  A    between atoms: _156  and  _157
REMARK   64  A    between atoms: _156  and  _159
REMARK   65  A    between atoms: _159  and  _160
REMARK   66  A    between atoms: _163  and  _165
REMARK   67  A    between atoms: _165  and  _166
REMARK   68  A    between atoms: _169  and  _171
REMARK   69  A    between atoms: _171  and  _172
REMARK   70  A    between atoms: _171  and  _174
REMARK   71  A    between atoms: _174  and  _175
REMARK   72  A    between atoms: _181  and  _183
REMARK   73  A    between atoms: _183  and  _184
REMARK   74  A    between atoms: _183  and  _186
REMARK   75  A    between atoms: _186  and  _187
REMARK   76  A    between atoms: _190  and  _192
REMARK   77  A    between atoms: _192  and  _193
REMARK   78  A    between atoms: _192  and  _195
REMARK   79  A    between atoms: _195  and  _196
REMARK   80  A    between atoms: _201  and  _203
REMARK   81  A    between atoms: _203  and  _204
REMARK   82  A    between atoms: _203  and  _206
REMARK   83  A    between atoms: _206  and  _207
REMARK   84  A    between atoms: _211  and  FE_414
REMARK   85  A    between atoms: _212  and  _214
REMARK   86  A    between atoms: _214  and  _215
REMARK   87  A    between atoms: _214  and  _217
REMARK   88  A    between atoms: _217  and  _218
REMARK   89  A    between atoms: _224  and  _226
REMARK   90  A    between atoms: _226  and  _227
REMARK   91  A    between atoms: _226  and  _229
REMARK   92  A    between atoms: _229  and  _230
REMARK   93  A    between atoms: _230  and  _231
REMARK   94  A    between atoms: _233  and  _235
REMARK   95  A    between atoms: _235  and  _236
REMARK   96  A    between atoms: _235  and  _238
REMARK   97  A    between atoms: _238  and  _239
REMARK   98  A    between atoms: _241  and  _243
REMARK   99  A    between atoms: _243  and  _244
REMARK  100  A    between atoms: _243  and  _246
REMARK  101  A    between atoms: _246  and  _247
REMARK  102  A    between atoms: _247  and  _248
REMARK  103  A    between atoms: _248  and  _249
REMARK  104  A    between atoms: _258  and  _260
REMARK  105  A    between atoms: _260  and  _261
REMARK  106  A    between atoms: _260  and  _263
REMARK  107  A    between atoms: _263  and  _264
REMARK  108  A    between atoms: _269  and  _271
REMARK  109  A    between atoms: _271  and  _272
REMARK  110  A    between atoms: _271  and  _274
REMARK  111  A    between atoms: _274  and  _275
REMARK  112  A    between atoms: _278  and  _280
REMARK  113  A    between atoms: _280  and  _281
REMARK  114  A    between atoms: _280  and  _283
REMARK  115  A    between atoms: _283  and  _284
REMARK  116  A    between atoms: _289  and  _291
REMARK  117  A    between atoms: _291  and  _292
REMARK  118  A    between atoms: _291  and  _294
REMARK  119  A    between atoms: _294  and  _295
REMARK  120  A    between atoms: _298  and  _300
REMARK  121  A    between atoms: _300  and  _301
REMARK  122  A    between atoms: _300  and  _303
REMARK  123  A    between atoms: _303  and  _304
REMARK  124  A    between atoms: _309  and  _311
REMARK  125  A    between atoms: _311  and  _312
REMARK  126  A    between atoms: _311  and  _314
REMARK  127  A    between atoms: _314  and  _315
REMARK  128  A    between atoms: _315  and  _316
REMARK  129  A    between atoms: _318  and  _320
REMARK  130  A    between atoms: _320  and  _321
REMARK  131  A    between atoms: _320  and  _323
REMARK  132  A    between atoms: _323  and  _324
REMARK  133  A    between atoms: _326  and  _328
REMARK  134  A    between atoms: _328  and  _329
REMARK  135  A    between atoms: _328  and  _331
REMARK  136  A    between atoms: _331  and  _332
REMARK  137  A    between atoms: _337  and  _338
REMARK  138  A    between atoms: _340  and  _342
REMARK  139  A    between atoms: _342  and  _343
REMARK  140  A    between atoms: _342  and  _345
REMARK  141  A    between atoms: _345  and  _346
REMARK  142  A    between atoms: _346  and  _347
REMARK  143  A    between atoms: _350  and  _352
REMARK  144  A    between atoms: _352  and  _353
REMARK  145  A    between atoms: _352  and  _355
REMARK  146  A    between atoms: _355  and  _356
REMARK  147  A    between atoms: _356  and  _357
REMARK  148  A    between atoms: _357  and  _358
REMARK  149  A    between atoms: _358  and  FE_414
REMARK  150  A    between atoms: _360  and  _362
REMARK  151  A    between atoms: _362  and  _363
REMARK  152  A    between atoms: _362  and  _365
REMARK  153  A    between atoms: _365  and  _366
REMARK  154  A    between atoms: _371  and  _373
REMARK  155  A    between atoms: _373  and  _374
REMARK  156  A    between atoms: _373  and  _376
REMARK  157  A    between atoms: _376  and  _377
REMARK  158  A    between atoms: _380  and  _381
REMARK  159  A    between atoms: _386  and  _388
REMARK  160  A    between atoms: _388  and  _389
REMARK  161  A    between atoms: _388  and  _391
REMARK  162  A    between atoms: _391  and  _392
REMARK  163  A    between atoms: _394  and  _396
REMARK  164  A    between atoms: _396  and  _397
REMARK  165  A    between atoms: _396  and  _399
REMARK  166  A    between atoms: _399  and  _400
REMARK  167  A    between atoms: _400  and  _401
REMARK  168  A    between atoms: _403  and  _405
REMARK  169  A    between atoms: _405  and  _406
REMARK  170  A    between atoms: _405  and  _408
REMARK  171  A    between atoms: _408  and  _409
REMARK                            x       y       z     vdW  Elec       q    Type
REMARK                         _______ _______ _______ _____ _____    ______ ____
ROOT
ATOM      1  O   HOH     1      14.047  17.633  15.886  0.00  0.00    +0.000 OA
ENDROOT
TORSDOF 0
REMARK  Name = ../refined-set-2016/1lgt/1lgt_pocket.pdb
REMARK  171 active torsions:
REMARK  status: ('A' for Active; 'I' for Inactive)
REMARK    1  A    between atoms: _1  and  _3
REMARK    2  A    between atoms: _3  and  _4
REMARK    3  A    between atoms: _3  and  _6
REMARK    4  A    between atoms: _6  and  _7
REMARK    5  A    between atoms: _11  and  FE_414
REMARK    6  A    between atoms: _12  and  _14
REMARK    7  A    between atoms: _14  and  _15
REMARK    8  A    between atoms: _14  and  _17
REMARK    9  A    between atoms: _17  and  _18
REMARK   10  A    between atoms: _24  and  _26
REMARK   11  A    between atoms: _26  and  _27
REMARK   12  A    between atoms: _26  and  _29
REMARK   13  A    between atoms: _32  and  _34
REMARK   14  A    between atoms: _34  and  _35
REMARK   15  A    between atoms: _34  and  _37
REMARK   16  A    between atoms: _37  and  _38
REMARK   17  A    between atoms: _38  and  _39
REMARK   18  A    between atoms: _39  and  _40
REMARK   19  A    between atoms: _49  and  _51
REMARK   20  A    between atoms: _51  and  _52
REMARK   21  A    between atoms: _51  and  _54
REMARK   22  A    between atoms: _54  and  _55
REMARK   23  A    between atoms: _58  and  _60
REMARK   24  A    between atoms: _60  and  _61
REMARK   25  A    between atoms: _60  and  _63
REMARK   26  A    between atoms: _63  and  _64
REMARK   27  A    between atoms: _67  and  _69
REMARK   28  A    between atoms: _69  and  _70
REMARK   29  A    between atoms: _69  and  _72
REMARK   30  A    between atoms: _72  and  _73
REMARK   31  A    between atoms: _73  and  _74
REMARK   32  A    between atoms: _76  and  _78
REMARK   33  A    between atoms: _78  and  _79
REMARK   34  A    between atoms: _78  and  _81
REMARK   35  A    between atoms: _81  and  _82
REMARK   36  A    between atoms: _82  and  _83
REMARK   37  A    between atoms: _85  and  _87
REMARK   38  A    between atoms: _87  and  _88
REMARK   39  A    between atoms: _91  and  _93
REMARK   40  A    between atoms: _93  and  _94
REMARK   41  A    between atoms: _93  and  _96
REMARK   42  A    between atoms: _96  and  _97
REMARK   43  A    between atoms: _102  and  _103
REMARK   44  A    between atoms: _105  and  _107
REMARK   45  A    between atoms: _107  and  _108
REMARK   46  A    between atoms: _107  and  _110
REMARK   47  A    between atoms: _110  and  _111
REMARK   48  A    between atoms: _117  and  _119
REMARK   49  A    between atoms: _119  and  _120
REMARK   50  A    between atoms: _119  and  _122
REMARK   51  A    between atoms: _122  and  _123
REMARK   52  A    between atoms: _128  and  _130
REMARK   53  A    between atoms: _130  and  _131
REMARK   54  A    between atoms: _130  and  _133
REMARK   55  A    between atoms: _133  and  _134
REMARK   56  A    between atoms: _139  and  _141
REMARK   57  A    between atoms: _141  and  _142
REMARK   58  A    between atoms: _141  and  _144
REMARK   59  A    between atoms: _144  and  _145
REMARK   60  A    between atoms: _148  and  _150
REMARK   61  A    between atoms: _150  and  _151
REMARK   62  A    between atoms: _154  and  _156
REMARK   63  A    between atoms: _156  and  _157
REMARK   64  A    between atoms: _156  and  _159
REMARK   65  A    between atoms: _159  and  _160
REMARK   66  A    between atoms: _163  and  _165
REMARK   67  A    between atoms: _165  and  _166
REMARK   68  A    between atoms: _169  and  _171
REMARK   69  A    between atoms: _171  and  _172
REMARK   70  A    between atoms: _171  and  _174
REMARK   71  A    between atoms: _174  and  _175
REMARK   72  A    between atoms: _181  and  _183
REMARK   73  A    between atoms: _183  and  _184
REMARK   74  A    between atoms: _183  and  _186
REMARK   75  A    between atoms: _186  and  _187
REMARK   76  A    between atoms: _190  and  _192
REMARK   77  A    between atoms: _192  and  _193
REMARK   78  A    between atoms: _192  and  _195
REMARK   79  A    between atoms: _195  and  _196
REMARK   80  A    between atoms: _201  and  _203
REMARK   81  A    between atoms: _203  and  _204
REMARK   82  A    between atoms: _203  and  _206
REMARK   83  A    between atoms: _206  and  _207
REMARK   84  A    between atoms: _211  and  FE_414
REMARK   85  A    between atoms: _212  and  _214
REMARK   86  A    between atoms: _214  and  _215
REMARK   87  A    between atoms: _214  and  _217
REMARK   88  A    between atoms: _217  and  _218
REMARK   89  A    between atoms: _224  and  _226
REMARK   90  A    between atoms: _226  and  _227
REMARK   91  A    between atoms: _226  and  _229
REMARK   92  A    between atoms: _229  and  _230
REMARK   93  A    between atoms: _230  and  _231
REMARK   94  A    between atoms: _233  and  _235
REMARK   95  A    between atoms: _235  and  _236
REMARK   96  A    between atoms: _235  and  _238
REMARK   97  A    between atoms: _238  and  _239
REMARK   98  A    between atoms: _241  and  _243
REMARK   99  A    between atoms: _243  and  _244
REMARK  100  A    between atoms: _243  and  _246
REMARK  101  A    between atoms: _246  and  _247
REMARK  102  A    between atoms: _247  and  _248
REMARK  103  A    between atoms: _248  and  _249
REMARK  104  A    between atoms: _258  and  _260
REMARK  105  A    between atoms: _260  and  _261
REMARK  106  A    between atoms: _260  and  _263
REMARK  107  A    between atoms: _263  and  _264
REMARK  108  A    between atoms: _269  and  _271
REMARK  109  A    between atoms: _271  and  _272
REMARK  110  A    between atoms: _271  and  _274
REMARK  111  A    between atoms: _274  and  _275
REMARK  112  A    between atoms: _278  and  _280
REMARK  113  A    between atoms: _280  and  _281
REMARK  114  A    between atoms: _280  and  _283
REMARK  115  A    between atoms: _283  and  _284
REMARK  116  A    between atoms: _289  and  _291
REMARK  117  A    between atoms: _291  and  _292
REMARK  118  A    between atoms: _291  and  _294
REMARK  119  A    between atoms: _294  and  _295
REMARK  120  A    between atoms: _298  and  _300
REMARK  121  A    between atoms: _300  and  _301
REMARK  122  A    between atoms: _300  and  _303
REMARK  123  A    between atoms: _303  and  _304
REMARK  124  A    between atoms: _309  and  _311
REMARK  125  A    between atoms: _311  and  _312
REMARK  126  A    between atoms: _311  and  _314
REMARK  127  A    between atoms: _314  and  _315
REMARK  128  A    between atoms: _315  and  _316
REMARK  129  A    between atoms: _318  and  _320
REMARK  130  A    between atoms: _320  and  _321
REMARK  131  A    between atoms: _320  and  _323
REMARK  132  A    between atoms: _323  and  _324
REMARK  133  A    between atoms: _326  and  _328
REMARK  134  A    between atoms: _328  and  _329
REMARK  135  A    between atoms: _328  and  _331
REMARK  136  A    between atoms: _331  and  _332
REMARK  137  A    between atoms: _337  and  _338
REMARK  138  A    between atoms: _340  and  _342
REMARK  139  A    between atoms: _342  and  _343
REMARK  140  A    between atoms: _342  and  _345
REMARK  141  A    between atoms: _345  and  _346
REMARK  142  A    between atoms: _346  and  _347
REMARK  143  A    between atoms: _350  and  _352
REMARK  144  A    between atoms: _352  and  _353
REMARK  145  A    between atoms: _352  and  _355
REMARK  146  A    between atoms: _355  and  _356
REMARK  147  A    between atoms: _356  and  _357
REMARK  148  A    between atoms: _357  and  _358
REMARK  149  A    between atoms: _358  and  FE_414
REMARK  150  A    between atoms: _360  and  _362
REMARK  151  A    between atoms: _362  and  _363
REMARK  152  A    between atoms: _362  and  _365
REMARK  153  A    between atoms: _365  and  _366
REMARK  154  A    between atoms: _371  and  _373
REMARK  155  A    between atoms: _373  and  _374
REMARK  156  A    between atoms: _373  and  _376
REMARK  157  A    between atoms: _376  and  _377
REMARK  158  A    between atoms: _380  and  _381
REMARK  159  A    between atoms: _386  and  _388
REMARK  160  A    between atoms: _388  and  _389
REMARK  161  A    between atoms: _388  and  _391
REMARK  162  A    between atoms: _391  and  _392
REMARK  163  A    between atoms: _394  and  _396
REMARK  164  A    between atoms: _396  and  _397
REMARK  165  A    between atoms: _396  and  _399
REMARK  166  A    between atoms: _399  and  _400
REMARK  167  A    between atoms: _400  and  _401
REMARK  168  A    between atoms: _403  and  _405
REMARK  169  A    between atoms: _405  and  _406
REMARK  170  A    between atoms: _405  and  _408
REMARK  171  A    between atoms: _408  and  _409
REMARK                            x       y       z     vdW  Elec       q    Type
REMARK                         _______ _______ _______ _____ _____    ______ ____
ROOT
ATOM      1  O   HOH     1      13.030  19.963  16.009  0.00  0.00    +0.000 OA
ENDROOT
TORSDOF 0
REMARK  Name = ../refined-set-2016/1lgt/1lgt_pocket.pdb
REMARK  171 active torsions:
REMARK  status: ('A' for Active; 'I' for Inactive)
REMARK    1  A    between atoms: _1  and  _3
REMARK    2  A    between atoms: _3  and  _4
REMARK    3  A    between atoms: _3  and  _6
REMARK    4  A    between atoms: _6  and  _7
REMARK    5  A    between atoms: _11  and  FE_414
REMARK    6  A    between atoms: _12  and  _14
REMARK    7  A    between atoms: _14  and  _15
REMARK    8  A    between atoms: _14  and  _17
REMARK    9  A    between atoms: _17  and  _18
REMARK   10  A    between atoms: _24  and  _26
REMARK   11  A    between atoms: _26  and  _27
REMARK   12  A    between atoms: _26  and  _29
REMARK   13  A    between atoms: _32  and  _34
REMARK   14  A    between atoms: _34  and  _35
REMARK   15  A    between atoms: _34  and  _37
REMARK   16  A    between atoms: _37  and  _38
REMARK   17  A    between atoms: _38  and  _39
REMARK   18  A    between atoms: _39  and  _40
REMARK   19  A    between atoms: _49  and  _51
REMARK   20  A    between atoms: _51  and  _52
REMARK   21  A    between atoms: _51  and  _54
REMARK   22  A    between atoms: _54  and  _55
REMARK   23  A    between atoms: _58  and  _60
REMARK   24  A    between atoms: _60  and  _61
REMARK   25  A    between atoms: _60  and  _63
REMARK   26  A    between atoms: _63  and  _64
REMARK   27  A    between atoms: _67  and  _69
REMARK   28  A    between atoms: _69  and  _70
REMARK   29  A    between atoms: _69  and  _72
REMARK   30  A    between atoms: _72  and  _73
REMARK   31  A    between atoms: _73  and  _74
REMARK   32  A    between atoms: _76  and  _78
REMARK   33  A    between atoms: _78  and  _79
REMARK   34  A    between atoms: _78  and  _81
REMARK   35  A    between atoms: _81  and  _82
REMARK   36  A    between atoms: _82  and  _83
REMARK   37  A    between atoms: _85  and  _87
REMARK   38  A    between atoms: _87  and  _88
REMARK   39  A    between atoms: _91  and  _93
REMARK   40  A    between atoms: _93  and  _94
REMARK   41  A    between atoms: _93  and  _96
REMARK   42  A    between atoms: _96  and  _97
REMARK   43  A    between atoms: _102  and  _103
REMARK   44  A    between atoms: _105  and  _107
REMARK   45  A    between atoms: _107  and  _108
REMARK   46  A    between atoms: _107  and  _110
REMARK   47  A    between atoms: _110  and  _111
REMARK   48  A    between atoms: _117  and  _119
REMARK   49  A    between atoms: _119  and  _120
REMARK   50  A    between atoms: _119  and  _122
REMARK   51  A    between atoms: _122  and  _123
REMARK   52  A    between atoms: _128  and  _130
REMARK   53  A    between atoms: _130  and  _131
REMARK   54  A    between atoms: _130  and  _133
REMARK   55  A    between atoms: _133  and  _134
REMARK   56  A    between atoms: _139  and  _141
REMARK   57  A    between atoms: _141  and  _142
REMARK   58  A    between atoms: _141  and  _144
REMARK   59  A    between atoms: _144  and  _145
REMARK   60  A    between atoms: _148  and  _150
REMARK   61  A    between atoms: _150  and  _151
REMARK   62  A    between atoms: _154  and  _156
REMARK   63  A    between atoms: _156  and  _157
REMARK   64  A    between atoms: _156  and  _159
REMARK   65  A    between atoms: _159  and  _160
REMARK   66  A    between atoms: _163  and  _165
REMARK   67  A    between atoms: _165  and  _166
REMARK   68  A    between atoms: _169  and  _171
REMARK   69  A    between atoms: _171  and  _172
REMARK   70  A    between atoms: _171  and  _174
REMARK   71  A    between atoms: _174  and  _175
REMARK   72  A    between atoms: _181  and  _183
REMARK   73  A    between atoms: _183  and  _184
REMARK   74  A    between atoms: _183  and  _186
REMARK   75  A    between atoms: _186  and  _187
REMARK   76  A    between atoms: _190  and  _192
REMARK   77  A    between atoms: _192  and  _193
REMARK   78  A    between atoms: _192  and  _195
REMARK   79  A    between atoms: _195  and  _196
REMARK   80  A    between atoms: _201  and  _203
REMARK   81  A    between atoms: _203  and  _204
REMARK   82  A    between atoms: _203  and  _206
REMARK   83  A    between atoms: _206  and  _207
REMARK   84  A    between atoms: _211  and  FE_414
REMARK   85  A    between atoms: _212  and  _214
REMARK   86  A    between atoms: _214  and  _215
REMARK   87  A    between atoms: _214  and  _217
REMARK   88  A    between atoms: _217  and  _218
REMARK   89  A    between atoms: _224  and  _226
REMARK   90  A    between atoms: _226  and  _227
REMARK   91  A    between atoms: _226  and  _229
REMARK   92  A    between atoms: _229  and  _230
REMARK   93  A    between atoms: _230  and  _231
REMARK   94  A    between atoms: _233  and  _235
REMARK   95  A    between atoms: _235  and  _236
REMARK   96  A    between atoms: _235  and  _238
REMARK   97  A    between atoms: _238  and  _239
REMARK   98  A    between atoms: _241  and  _243
REMARK   99  A    between atoms: _243  and  _244
REMARK  100  A    between atoms: _243  and  _246
REMARK  101  A    between atoms: _246  and  _247
REMARK  102  A    between atoms: _247  and  _248
REMARK  103  A    between atoms: _248  and  _249
REMARK  104  A    between atoms: _258  and  _260
REMARK  105  A    between atoms: _260  and  _261
REMARK  106  A    between atoms: _260  and  _263
REMARK  107  A    between atoms: _263  and  _264
REMARK  108  A    between atoms: _269  and  _271
REMARK  109  A    between atoms: _271  and  _272
REMARK  110  A    between atoms: _271  and  _274
REMARK  111  A    between atoms: _274  and  _275
REMARK  112  A    between atoms: _278  and  _280
REMARK  113  A    between atoms: _280  and  _281
REMARK  114  A    between atoms: _280  and  _283
REMARK  115  A    between atoms: _283  and  _284
REMARK  116  A    between atoms: _289  and  _291
REMARK  117  A    between atoms: _291  and  _292
REMARK  118  A    between atoms: _291  and  _294
REMARK  119  A    between atoms: _294  and  _295
REMARK  120  A    between atoms: _298  and  _300
REMARK  121  A    between atoms: _300  and  _301
REMARK  122  A    between atoms: _300  and  _303
REMARK  123  A    between atoms: _303  and  _304
REMARK  124  A    between atoms: _309  and  _311
REMARK  125  A    between atoms: _311  and  _312
REMARK  126  A    between atoms: _311  and  _314
REMARK  127  A    between atoms: _314  and  _315
REMARK  128  A    between atoms: _315  and  _316
REMARK  129  A    between atoms: _318  and  _320
REMARK  130  A    between atoms: _320  and  _321
REMARK  131  A    between atoms: _320  and  _323
REMARK  132  A    between atoms: _323  and  _324
REMARK  133  A    between atoms: _326  and  _328
REMARK  134  A    between atoms: _328  and  _329
REMARK  135  A    between atoms: _328  and  _331
REMARK  136  A    between atoms: _331  and  _332
REMARK  137  A    between atoms: _337  and  _338
REMARK  138  A    between atoms: _340  and  _342
REMARK  139  A    between atoms: _342  and  _343
REMARK  140  A    between atoms: _342  and  _345
REMARK  141  A    between atoms: _345  and  _346
REMARK  142  A    between atoms: _346  and  _347
REMARK  143  A    between atoms: _350  and  _352
REMARK  144  A    between atoms: _352  and  _353
REMARK  145  A    between atoms: _352  and  _355
REMARK  146  A    between atoms: _355  and  _356
REMARK  147  A    between atoms: _356  and  _357
REMARK  148  A    between atoms: _357  and  _358
REMARK  149  A    between atoms: _358  and  FE_414
REMARK  150  A    between atoms: _360  and  _362
REMARK  151  A    between atoms: _362  and  _363
REMARK  152  A    between atoms: _362  and  _365
REMARK  153  A    between atoms: _365  and  _366
REMARK  154  A    between atoms: _371  and  _373
REMARK  155  A    between atoms: _373  and  _374
REMARK  156  A    between atoms: _373  and  _376
REMARK  157  A    between atoms: _376  and  _377
REMARK  158  A    between atoms: _380  and  _381
REMARK  159  A    between atoms: _386  and  _388
REMARK  160  A    between atoms: _388  and  _389
REMARK  161  A    between atoms: _388  and  _391
REMARK  162  A    between atoms: _391  and  _392
REMARK  163  A    between atoms: _394  and  _396
REMARK  164  A    between atoms: _396  and  _397
REMARK  165  A    between atoms: _396  and  _399
REMARK  166  A    between atoms: _399  and  _400
REMARK  167  A    between atoms: _400  and  _401
REMARK  168  A    between atoms: _403  and  _405
REMARK  169  A    between atoms: _405  and  _406
REMARK  170  A    between atoms: _405  and  _408
REMARK  171  A    between atoms: _408  and  _409
REMARK                            x       y       z     vdW  Elec       q    Type
REMARK                         _______ _______ _______ _____ _____    ______ ____
ROOT
ATOM      1  O   HOH     1      29.606  19.130  11.921  0.00  0.00    +0.000 OA
ENDROOT
TORSDOF 0
REMARK  Name = ../refined-set-2016/1lgt/1lgt_pocket.pdb
REMARK  171 active torsions:
REMARK  status: ('A' for Active; 'I' for Inactive)
REMARK    1  A    between atoms: _1  and  _3
REMARK    2  A    between atoms: _3  and  _4
REMARK    3  A    between atoms: _3  and  _6
REMARK    4  A    between atoms: _6  and  _7
REMARK    5  A    between atoms: _11  and  FE_414
REMARK    6  A    between atoms: _12  and  _14
REMARK    7  A    between atoms: _14  and  _15
REMARK    8  A    between atoms: _14  and  _17
REMARK    9  A    between atoms: _17  and  _18
REMARK   10  A    between atoms: _24  and  _26
REMARK   11  A    between atoms: _26  and  _27
REMARK   12  A    between atoms: _26  and  _29
REMARK   13  A    between atoms: _32  and  _34
REMARK   14  A    between atoms: _34  and  _35
REMARK   15  A    between atoms: _34  and  _37
REMARK   16  A    between atoms: _37  and  _38
REMARK   17  A    between atoms: _38  and  _39
REMARK   18  A    between atoms: _39  and  _40
REMARK   19  A    between atoms: _49  and  _51
REMARK   20  A    between atoms: _51  and  _52
REMARK   21  A    between atoms: _51  and  _54
REMARK   22  A    between atoms: _54  and  _55
REMARK   23  A    between atoms: _58  and  _60
REMARK   24  A    between atoms: _60  and  _61
REMARK   25  A    between atoms: _60  and  _63
REMARK   26  A    between atoms: _63  and  _64
REMARK   27  A    between atoms: _67  and  _69
REMARK   28  A    between atoms: _69  and  _70
REMARK   29  A    between atoms: _69  and  _72
REMARK   30  A    between atoms: _72  and  _73
REMARK   31  A    between atoms: _73  and  _74
REMARK   32  A    between atoms: _76  and  _78
REMARK   33  A    between atoms: _78  and  _79
REMARK   34  A    between atoms: _78  and  _81
REMARK   35  A    between atoms: _81  and  _82
REMARK   36  A    between atoms: _82  and  _83
REMARK   37  A    between atoms: _85  and  _87
REMARK   38  A    between atoms: _87  and  _88
REMARK   39  A    between atoms: _91  and  _93
REMARK   40  A    between atoms: _93  and  _94
REMARK   41  A    between atoms: _93  and  _96
REMARK   42  A    between atoms: _96  and  _97
REMARK   43  A    between atoms: _102  and  _103
REMARK   44  A    between atoms: _105  and  _107
REMARK   45  A    between atoms: _107  and  _108
REMARK   46  A    between atoms: _107  and  _110
REMARK   47  A    between atoms: _110  and  _111
REMARK   48  A    between atoms: _117  and  _119
REMARK   49  A    between atoms: _119  and  _120
REMARK   50  A    between atoms: _119  and  _122
REMARK   51  A    between atoms: _122  and  _123
REMARK   52  A    between atoms: _128  and  _130
REMARK   53  A    between atoms: _130  and  _131
REMARK   54  A    between atoms: _130  and  _133
REMARK   55  A    between atoms: _133  and  _134
REMARK   56  A    between atoms: _139  and  _141
REMARK   57  A    between atoms: _141  and  _142
REMARK   58  A    between atoms: _141  and  _144
REMARK   59  A    between atoms: _144  and  _145
REMARK   60  A    between atoms: _148  and  _150
REMARK   61  A    between atoms: _150  and  _151
REMARK   62  A    between atoms: _154  and  _156
REMARK   63  A    between atoms: _156  and  _157
REMARK   64  A    between atoms: _156  and  _159
REMARK   65  A    between atoms: _159  and  _160
REMARK   66  A    between atoms: _163  and  _165
REMARK   67  A    between atoms: _165  and  _166
REMARK   68  A    between atoms: _169  and  _171
REMARK   69  A    between atoms: _171  and  _172
REMARK   70  A    between atoms: _171  and  _174
REMARK   71  A    between atoms: _174  and  _175
REMARK   72  A    between atoms: _181  and  _183
REMARK   73  A    between atoms: _183  and  _184
REMARK   74  A    between atoms: _183  and  _186
REMARK   75  A    between atoms: _186  and  _187
REMARK   76  A    between atoms: _190  and  _192
REMARK   77  A    between atoms: _192  and  _193
REMARK   78  A    between atoms: _192  and  _195
REMARK   79  A    between atoms: _195  and  _196
REMARK   80  A    between atoms: _201  and  _203
REMARK   81  A    between atoms: _203  and  _204
REMARK   82  A    between atoms: _203  and  _206
REMARK   83  A    between atoms: _206  and  _207
REMARK   84  A    between atoms: _211  and  FE_414
REMARK   85  A    between atoms: _212  and  _214
REMARK   86  A    between atoms: _214  and  _215
REMARK   87  A    between atoms: _214  and  _217
REMARK   88  A    between atoms: _217  and  _218
REMARK   89  A    between atoms: _224  and  _226
REMARK   90  A    between atoms: _226  and  _227
REMARK   91  A    between atoms: _226  and  _229
REMARK   92  A    between atoms: _229  and  _230
REMARK   93  A    between atoms: _230  and  _231
REMARK   94  A    between atoms: _233  and  _235
REMARK   95  A    between atoms: _235  and  _236
REMARK   96  A    between atoms: _235  and  _238
REMARK   97  A    between atoms: _238  and  _239
REMARK   98  A    between atoms: _241  and  _243
REMARK   99  A    between atoms: _243  and  _244
REMARK  100  A    between atoms: _243  and  _246
REMARK  101  A    between atoms: _246  and  _247
REMARK  102  A    between atoms: _247  and  _248
REMARK  103  A    between atoms: _248  and  _249
REMARK  104  A    between atoms: _258  and  _260
REMARK  105  A    between atoms: _260  and  _261
REMARK  106  A    between atoms: _260  and  _263
REMARK  107  A    between atoms: _263  and  _264
REMARK  108  A    between atoms: _269  and  _271
REMARK  109  A    between atoms: _271  and  _272
REMARK  110  A    between atoms: _271  and  _274
REMARK  111  A    between atoms: _274  and  _275
REMARK  112  A    between atoms: _278  and  _280
REMARK  113  A    between atoms: _280  and  _281
REMARK  114  A    between atoms: _280  and  _283
REMARK  115  A    between atoms: _283  and  _284
REMARK  116  A    between atoms: _289  and  _291
REMARK  117  A    between atoms: _291  and  _292
REMARK  118  A    between atoms: _291  and  _294
REMARK  119  A    between atoms: _294  and  _295
REMARK  120  A    between atoms: _298  and  _300
REMARK  121  A    between atoms: _300  and  _301
REMARK  122  A    between atoms: _300  and  _303
REMARK  123  A    between atoms: _303  and  _304
REMARK  124  A    between atoms: _309  and  _311
REMARK  125  A    between atoms: _311  and  _312
REMARK  126  A    between atoms: _311  and  _314
REMARK  127  A    between atoms: _314  and  _315
REMARK  128  A    between atoms: _315  and  _316
REMARK  129  A    between atoms: _318  and  _320
REMARK  130  A    between atoms: _320  and  _321
REMARK  131  A    between atoms: _320  and  _323
REMARK  132  A    between atoms: _323  and  _324
REMARK  133  A    between atoms: _326  and  _328
REMARK  134  A    between atoms: _328  and  _329
REMARK  135  A    between atoms: _328  and  _331
REMARK  136  A    between atoms: _331  and  _332
REMARK  137  A    between atoms: _337  and  _338
REMARK  138  A    between atoms: _340  and  _342
REMARK  139  A    between atoms: _342  and  _343
REMARK  140  A    between atoms: _342  and  _345
REMARK  141  A    between atoms: _345  and  _346
REMARK  142  A    between atoms: _346  and  _347
REMARK  143  A    between atoms: _350  and  _352
REMARK  144  A    between atoms: _352  and  _353
REMARK  145  A    between atoms: _352  and  _355
REMARK  146  A    between atoms: _355  and  _356
REMARK  147  A    between atoms: _356  and  _357
REMARK  148  A    between atoms: _357  and  _358
REMARK  149  A    between atoms: _358  and  FE_414
REMARK  150  A    between atoms: _360  and  _362
REMARK  151  A    between atoms: _362  and  _363
REMARK  152  A    between atoms: _362  and  _365
REMARK  153  A    between atoms: _365  and  _366
REMARK  154  A    between atoms: _371  and  _373
REMARK  155  A    between atoms: _373  and  _374
REMARK  156  A    between atoms: _373  and  _376
REMARK  157  A    between atoms: _376  and  _377
REMARK  158  A    between atoms: _380  and  _381
REMARK  159  A    between atoms: _386  and  _388
REMARK  160  A    between atoms: _388  and  _389
REMARK  161  A    between atoms: _388  and  _391
REMARK  162  A    between atoms: _391  and  _392
REMARK  163  A    between atoms: _394  and  _396
REMARK  164  A    between atoms: _396  and  _397
REMARK  165  A    between atoms: _396  and  _399
REMARK  166  A    between atoms: _399  and  _400
REMARK  167  A    between atoms: _400  and  _401
REMARK  168  A    between atoms: _403  and  _405
REMARK  169  A    between atoms: _405  and  _406
REMARK  170  A    between atoms: _405  and  _408
REMARK  171  A    between atoms: _408  and  _409
REMARK                            x       y       z     vdW  Elec       q    Type
REMARK                         _______ _______ _______ _____ _____    ______ ____
ROOT
ATOM      1  O   HOH     1      27.953  28.685  19.262  0.00  0.00    +0.000 OA
ENDROOT
TORSDOF 0
REMARK  Name = ../refined-set-2016/1lgt/1lgt_pocket.pdb
REMARK  171 active torsions:
REMARK  status: ('A' for Active; 'I' for Inactive)
REMARK    1  A    between atoms: _1  and  _3
REMARK    2  A    between atoms: _3  and  _4
REMARK    3  A    between atoms: _3  and  _6
REMARK    4  A    between atoms: _6  and  _7
REMARK    5  A    between atoms: _11  and  FE_414
REMARK    6  A    between atoms: _12  and  _14
REMARK    7  A    between atoms: _14  and  _15
REMARK    8  A    between atoms: _14  and  _17
REMARK    9  A    between atoms: _17  and  _18
REMARK   10  A    between atoms: _24  and  _26
REMARK   11  A    between atoms: _26  and  _27
REMARK   12  A    between atoms: _26  and  _29
REMARK   13  A    between atoms: _32  and  _34
REMARK   14  A    between atoms: _34  and  _35
REMARK   15  A    between atoms: _34  and  _37
REMARK   16  A    between atoms: _37  and  _38
REMARK   17  A    between atoms: _38  and  _39
REMARK   18  A    between atoms: _39  and  _40
REMARK   19  A    between atoms: _49  and  _51
REMARK   20  A    between atoms: _51  and  _52
REMARK   21  A    between atoms: _51  and  _54
REMARK   22  A    between atoms: _54  and  _55
REMARK   23  A    between atoms: _58  and  _60
REMARK   24  A    between atoms: _60  and  _61
REMARK   25  A    between atoms: _60  and  _63
REMARK   26  A    between atoms: _63  and  _64
REMARK   27  A    between atoms: _67  and  _69
REMARK   28  A    between atoms: _69  and  _70
REMARK   29  A    between atoms: _69  and  _72
REMARK   30  A    between atoms: _72  and  _73
REMARK   31  A    between atoms: _73  and  _74
REMARK   32  A    between atoms: _76  and  _78
REMARK   33  A    between atoms: _78  and  _79
REMARK   34  A    between atoms: _78  and  _81
REMARK   35  A    between atoms: _81  and  _82
REMARK   36  A    between atoms: _82  and  _83
REMARK   37  A    between atoms: _85  and  _87
REMARK   38  A    between atoms: _87  and  _88
REMARK   39  A    between atoms: _91  and  _93
REMARK   40  A    between atoms: _93  and  _94
REMARK   41  A    between atoms: _93  and  _96
REMARK   42  A    between atoms: _96  and  _97
REMARK   43  A    between atoms: _102  and  _103
REMARK   44  A    between atoms: _105  and  _107
REMARK   45  A    between atoms: _107  and  _108
REMARK   46  A    between atoms: _107  and  _110
REMARK   47  A    between atoms: _110  and  _111
REMARK   48  A    between atoms: _117  and  _119
REMARK   49  A    between atoms: _119  and  _120
REMARK   50  A    between atoms: _119  and  _122
REMARK   51  A    between atoms: _122  and  _123
REMARK   52  A    between atoms: _128  and  _130
REMARK   53  A    between atoms: _130  and  _131
REMARK   54  A    between atoms: _130  and  _133
REMARK   55  A    between atoms: _133  and  _134
REMARK   56  A    between atoms: _139  and  _141
REMARK   57  A    between atoms: _141  and  _142
REMARK   58  A    between atoms: _141  and  _144
REMARK   59  A    between atoms: _144  and  _145
REMARK   60  A    between atoms: _148  and  _150
REMARK   61  A    between atoms: _150  and  _151
REMARK   62  A    between atoms: _154  and  _156
REMARK   63  A    between atoms: _156  and  _157
REMARK   64  A    between atoms: _156  and  _159
REMARK   65  A    between atoms: _159  and  _160
REMARK   66  A    between atoms: _163  and  _165
REMARK   67  A    between atoms: _165  and  _166
REMARK   68  A    between atoms: _169  and  _171
REMARK   69  A    between atoms: _171  and  _172
REMARK   70  A    between atoms: _171  and  _174
REMARK   71  A    between atoms: _174  and  _175
REMARK   72  A    between atoms: _181  and  _183
REMARK   73  A    between atoms: _183  and  _184
REMARK   74  A    between atoms: _183  and  _186
REMARK   75  A    between atoms: _186  and  _187
REMARK   76  A    between atoms: _190  and  _192
REMARK   77  A    between atoms: _192  and  _193
REMARK   78  A    between atoms: _192  and  _195
REMARK   79  A    between atoms: _195  and  _196
REMARK   80  A    between atoms: _201  and  _203
REMARK   81  A    between atoms: _203  and  _204
REMARK   82  A    between atoms: _203  and  _206
REMARK   83  A    between atoms: _206  and  _207
REMARK   84  A    between atoms: _211  and  FE_414
REMARK   85  A    between atoms: _212  and  _214
REMARK   86  A    between atoms: _214  and  _215
REMARK   87  A    between atoms: _214  and  _217
REMARK   88  A    between atoms: _217  and  _218
REMARK   89  A    between atoms: _224  and  _226
REMARK   90  A    between atoms: _226  and  _227
REMARK   91  A    between atoms: _226  and  _229
REMARK   92  A    between atoms: _229  and  _230
REMARK   93  A    between atoms: _230  and  _231
REMARK   94  A    between atoms: _233  and  _235
REMARK   95  A    between atoms: _235  and  _236
REMARK   96  A    between atoms: _235  and  _238
REMARK   97  A    between atoms: _238  and  _239
REMARK   98  A    between atoms: _241  and  _243
REMARK   99  A    between atoms: _243  and  _244
REMARK  100  A    between atoms: _243  and  _246
REMARK  101  A    between atoms: _246  and  _247
REMARK  102  A    between atoms: _247  and  _248
REMARK  103  A    between atoms: _248  and  _249
REMARK  104  A    between atoms: _258  and  _260
REMARK  105  A    between atoms: _260  and  _261
REMARK  106  A    between atoms: _260  and  _263
REMARK  107  A    between atoms: _263  and  _264
REMARK  108  A    between atoms: _269  and  _271
REMARK  109  A    between atoms: _271  and  _272
REMARK  110  A    between atoms: _271  and  _274
REMARK  111  A    between atoms: _274  and  _275
REMARK  112  A    between atoms: _278  and  _280
REMARK  113  A    between atoms: _280  and  _281
REMARK  114  A    between atoms: _280  and  _283
REMARK  115  A    between atoms: _283  and  _284
REMARK  116  A    between atoms: _289  and  _291
REMARK  117  A    between atoms: _291  and  _292
REMARK  118  A    between atoms: _291  and  _294
REMARK  119  A    between atoms: _294  and  _295
REMARK  120  A    between atoms: _298  and  _300
REMARK  121  A    between atoms: _300  and  _301
REMARK  122  A    between atoms: _300  and  _303
REMARK  123  A    between atoms: _303  and  _304
REMARK  124  A    between atoms: _309  and  _311
REMARK  125  A    between atoms: _311  and  _312
REMARK  126  A    between atoms: _311  and  _314
REMARK  127  A    between atoms: _314  and  _315
REMARK  128  A    between atoms: _315  and  _316
REMARK  129  A    between atoms: _318  and  _320
REMARK  130  A    between atoms: _320  and  _321
REMARK  131  A    between atoms: _320  and  _323
REMARK  132  A    between atoms: _323  and  _324
REMARK  133  A    between atoms: _326  and  _328
REMARK  134  A    between atoms: _328  and  _329
REMARK  135  A    between atoms: _328  and  _331
REMARK  136  A    between atoms: _331  and  _332
REMARK  137  A    between atoms: _337  and  _338
REMARK  138  A    between atoms: _340  and  _342
REMARK  139  A    between atoms: _342  and  _343
REMARK  140  A    between atoms: _342  and  _345
REMARK  141  A    between atoms: _345  and  _346
REMARK  142  A    between atoms: _346  and  _347
REMARK  143  A    between atoms: _350  and  _352
REMARK  144  A    between atoms: _352  and  _353
REMARK  145  A    between atoms: _352  and  _355
REMARK  146  A    between atoms: _355  and  _356
REMARK  147  A    between atoms: _356  and  _357
REMARK  148  A    between atoms: _357  and  _358
REMARK  149  A    between atoms: _358  and  FE_414
REMARK  150  A    between atoms: _360  and  _362
REMARK  151  A    between atoms: _362  and  _363
REMARK  152  A    between atoms: _362  and  _365
REMARK  153  A    between atoms: _365  and  _366
REMARK  154  A    between atoms: _371  and  _373
REMARK  155  A    between atoms: _373  and  _374
REMARK  156  A    between atoms: _373  and  _376
REMARK  157  A    between atoms: _376  and  _377
REMARK  158  A    between atoms: _380  and  _381
REMARK  159  A    between atoms: _386  and  _388
REMARK  160  A    between atoms: _388  and  _389
REMARK  161  A    between atoms: _388  and  _391
REMARK  162  A    between atoms: _391  and  _392
REMARK  163  A    between atoms: _394  and  _396
REMARK  164  A    between atoms: _396  and  _397
REMARK  165  A    between atoms: _396  and  _399
REMARK  166  A    between atoms: _399  and  _400
REMARK  167  A    between atoms: _400  and  _401
REMARK  168  A    between atoms: _403  and  _405
REMARK  169  A    between atoms: _405  and  _406
REMARK  170  A    between atoms: _405  and  _408
REMARK  171  A    between atoms: _408  and  _409
REMARK                            x       y       z     vdW  Elec       q    Type
REMARK                         _______ _______ _______ _____ _____    ______ ____
ROOT
ATOM      1  O   HOH     1      18.828  22.855  18.454  0.00  0.00    +0.000 OA
ENDROOT
TORSDOF 0
REMARK  Name = ../refined-set-2016/1lgt/1lgt_pocket.pdb
REMARK  171 active torsions:
REMARK  status: ('A' for Active; 'I' for Inactive)
REMARK    1  A    between atoms: _1  and  _3
REMARK    2  A    between atoms: _3  and  _4
REMARK    3  A    between atoms: _3  and  _6
REMARK    4  A    between atoms: _6  and  _7
REMARK    5  A    between atoms: _11  and  FE_414
REMARK    6  A    between atoms: _12  and  _14
REMARK    7  A    between atoms: _14  and  _15
REMARK    8  A    between atoms: _14  and  _17
REMARK    9  A    between atoms: _17  and  _18
REMARK   10  A    between atoms: _24  and  _26
REMARK   11  A    between atoms: _26  and  _27
REMARK   12  A    between atoms: _26  and  _29
REMARK   13  A    between atoms: _32  and  _34
REMARK   14  A    between atoms: _34  and  _35
REMARK   15  A    between atoms: _34  and  _37
REMARK   16  A    between atoms: _37  and  _38
REMARK   17  A    between atoms: _38  and  _39
REMARK   18  A    between atoms: _39  and  _40
REMARK   19  A    between atoms: _49  and  _51
REMARK   20  A    between atoms: _51  and  _52
REMARK   21  A    between atoms: _51  and  _54
REMARK   22  A    between atoms: _54  and  _55
REMARK   23  A    between atoms: _58  and  _60
REMARK   24  A    between atoms: _60  and  _61
REMARK   25  A    between atoms: _60  and  _63
REMARK   26  A    between atoms: _63  and  _64
REMARK   27  A    between atoms: _67  and  _69
REMARK   28  A    between atoms: _69  and  _70
REMARK   29  A    between atoms: _69  and  _72
REMARK   30  A    between atoms: _72  and  _73
REMARK   31  A    between atoms: _73  and  _74
REMARK   32  A    between atoms: _76  and  _78
REMARK   33  A    between atoms: _78  and  _79
REMARK   34  A    between atoms: _78  and  _81
REMARK   35  A    between atoms: _81  and  _82
REMARK   36  A    between atoms: _82  and  _83
REMARK   37  A    between atoms: _85  and  _87
REMARK   38  A    between atoms: _87  and  _88
REMARK   39  A    between atoms: _91  and  _93
REMARK   40  A    between atoms: _93  and  _94
REMARK   41  A    between atoms: _93  and  _96
REMARK   42  A    between atoms: _96  and  _97
REMARK   43  A    between atoms: _102  and  _103
REMARK   44  A    between atoms: _105  and  _107
REMARK   45  A    between atoms: _107  and  _108
REMARK   46  A    between atoms: _107  and  _110
REMARK   47  A    between atoms: _110  and  _111
REMARK   48  A    between atoms: _117  and  _119
REMARK   49  A    between atoms: _119  and  _120
REMARK   50  A    between atoms: _119  and  _122
REMARK   51  A    between atoms: _122  and  _123
REMARK   52  A    between atoms: _128  and  _130
REMARK   53  A    between atoms: _130  and  _131
REMARK   54  A    between atoms: _130  and  _133
REMARK   55  A    between atoms: _133  and  _134
REMARK   56  A    between atoms: _139  and  _141
REMARK   57  A    between atoms: _141  and  _142
REMARK   58  A    between atoms: _141  and  _144
REMARK   59  A    between atoms: _144  and  _145
REMARK   60  A    between atoms: _148  and  _150
REMARK   61  A    between atoms: _150  and  _151
REMARK   62  A    between atoms: _154  and  _156
REMARK   63  A    between atoms: _156  and  _157
REMARK   64  A    between atoms: _156  and  _159
REMARK   65  A    between atoms: _159  and  _160
REMARK   66  A    between atoms: _163  and  _165
REMARK   67  A    between atoms: _165  and  _166
REMARK   68  A    between atoms: _169  and  _171
REMARK   69  A    between atoms: _171  and  _172
REMARK   70  A    between atoms: _171  and  _174
REMARK   71  A    between atoms: _174  and  _175
REMARK   72  A    between atoms: _181  and  _183
REMARK   73  A    between atoms: _183  and  _184
REMARK   74  A    between atoms: _183  and  _186
REMARK   75  A    between atoms: _186  and  _187
REMARK   76  A    between atoms: _190  and  _192
REMARK   77  A    between atoms: _192  and  _193
REMARK   78  A    between atoms: _192  and  _195
REMARK   79  A    between atoms: _195  and  _196
REMARK   80  A    between atoms: _201  and  _203
REMARK   81  A    between atoms: _203  and  _204
REMARK   82  A    between atoms: _203  and  _206
REMARK   83  A    between atoms: _206  and  _207
REMARK   84  A    between atoms: _211  and  FE_414
REMARK   85  A    between atoms: _212  and  _214
REMARK   86  A    between atoms: _214  and  _215
REMARK   87  A    between atoms: _214  and  _217
REMARK   88  A    between atoms: _217  and  _218
REMARK   89  A    between atoms: _224  and  _226
REMARK   90  A    between atoms: _226  and  _227
REMARK   91  A    between atoms: _226  and  _229
REMARK   92  A    between atoms: _229  and  _230
REMARK   93  A    between atoms: _230  and  _231
REMARK   94  A    between atoms: _233  and  _235
REMARK   95  A    between atoms: _235  and  _236
REMARK   96  A    between atoms: _235  and  _238
REMARK   97  A    between atoms: _238  and  _239
REMARK   98  A    between atoms: _241  and  _243
REMARK   99  A    between atoms: _243  and  _244
REMARK  100  A    between atoms: _243  and  _246
REMARK  101  A    between atoms: _246  and  _247
REMARK  102  A    between atoms: _247  and  _248
REMARK  103  A    between atoms: _248  and  _249
REMARK  104  A    between atoms: _258  and  _260
REMARK  105  A    between atoms: _260  and  _261
REMARK  106  A    between atoms: _260  and  _263
REMARK  107  A    between atoms: _263  and  _264
REMARK  108  A    between atoms: _269  and  _271
REMARK  109  A    between atoms: _271  and  _272
REMARK  110  A    between atoms: _271  and  _274
REMARK  111  A    between atoms: _274  and  _275
REMARK  112  A    between atoms: _278  and  _280
REMARK  113  A    between atoms: _280  and  _281
REMARK  114  A    between atoms: _280  and  _283
REMARK  115  A    between atoms: _283  and  _284
REMARK  116  A    between atoms: _289  and  _291
REMARK  117  A    between atoms: _291  and  _292
REMARK  118  A    between atoms: _291  and  _294
REMARK  119  A    between atoms: _294  and  _295
REMARK  120  A    between atoms: _298  and  _300
REMARK  121  A    between atoms: _300  and  _301
REMARK  122  A    between atoms: _300  and  _303
REMARK  123  A    between atoms: _303  and  _304
REMARK  124  A    between atoms: _309  and  _311
REMARK  125  A    between atoms: _311  and  _312
REMARK  126  A    between atoms: _311  and  _314
REMARK  127  A    between atoms: _314  and  _315
REMARK  128  A    between atoms: _315  and  _316
REMARK  129  A    between atoms: _318  and  _320
REMARK  130  A    between atoms: _320  and  _321
REMARK  131  A    between atoms: _320  and  _323
REMARK  132  A    between atoms: _323  and  _324
REMARK  133  A    between atoms: _326  and  _328
REMARK  134  A    between atoms: _328  and  _329
REMARK  135  A    between atoms: _328  and  _331
REMARK  136  A    between atoms: _331  and  _332
REMARK  137  A    between atoms: _337  and  _338
REMARK  138  A    between atoms: _340  and  _342
REMARK  139  A    between atoms: _342  and  _343
REMARK  140  A    between atoms: _342  and  _345
REMARK  141  A    between atoms: _345  and  _346
REMARK  142  A    between atoms: _346  and  _347
REMARK  143  A    between atoms: _350  and  _352
REMARK  144  A    between atoms: _352  and  _353
REMARK  145  A    between atoms: _352  and  _355
REMARK  146  A    between atoms: _355  and  _356
REMARK  147  A    between atoms: _356  and  _357
REMARK  148  A    between atoms: _357  and  _358
REMARK  149  A    between atoms: _358  and  FE_414
REMARK  150  A    between atoms: _360  and  _362
REMARK  151  A    between atoms: _362  and  _363
REMARK  152  A    between atoms: _362  and  _365
REMARK  153  A    between atoms: _365  and  _366
REMARK  154  A    between atoms: _371  and  _373
REMARK  155  A    between atoms: _373  and  _374
REMARK  156  A    between atoms: _373  and  _376
REMARK  157  A    between atoms: _376  and  _377
REMARK  158  A    between atoms: _380  and  _381
REMARK  159  A    between atoms: _386  and  _388
REMARK  160  A    between atoms: _388  and  _389
REMARK  161  A    between atoms: _388  and  _391
REMARK  162  A    between atoms: _391  and  _392
REMARK  163  A    between atoms: _394  and  _396
REMARK  164  A    between atoms: _396  and  _397
REMARK  165  A    between atoms: _396  and  _399
REMARK  166  A    between atoms: _399  and  _400
REMARK  167  A    between atoms: _400  and  _401
REMARK  168  A    between atoms: _403  and  _405
REMARK  169  A    between atoms: _405  and  _406
REMARK  170  A    between atoms: _405  and  _408
REMARK  171  A    between atoms: _408  and  _409
REMARK                            x       y       z     vdW  Elec       q    Type
REMARK                         _______ _______ _______ _____ _____    ______ ____
ROOT
ATOM      1  O   HOH     1      17.016  20.474  13.707  0.00  0.00    +0.000 OA
ENDROOT
TORSDOF 0
REMARK  Name = ../refined-set-2016/1lgt/1lgt_pocket.pdb
REMARK  171 active torsions:
REMARK  status: ('A' for Active; 'I' for Inactive)
REMARK    1  A    between atoms: _1  and  _3
REMARK    2  A    between atoms: _3  and  _4
REMARK    3  A    between atoms: _3  and  _6
REMARK    4  A    between atoms: _6  and  _7
REMARK    5  A    between atoms: _11  and  FE_414
REMARK    6  A    between atoms: _12  and  _14
REMARK    7  A    between atoms: _14  and  _15
REMARK    8  A    between atoms: _14  and  _17
REMARK    9  A    between atoms: _17  and  _18
REMARK   10  A    between atoms: _24  and  _26
REMARK   11  A    between atoms: _26  and  _27
REMARK   12  A    between atoms: _26  and  _29
REMARK   13  A    between atoms: _32  and  _34
REMARK   14  A    between atoms: _34  and  _35
REMARK   15  A    between atoms: _34  and  _37
REMARK   16  A    between atoms: _37  and  _38
REMARK   17  A    between atoms: _38  and  _39
REMARK   18  A    between atoms: _39  and  _40
REMARK   19  A    between atoms: _49  and  _51
REMARK   20  A    between atoms: _51  and  _52
REMARK   21  A    between atoms: _51  and  _54
REMARK   22  A    between atoms: _54  and  _55
REMARK   23  A    between atoms: _58  and  _60
REMARK   24  A    between atoms: _60  and  _61
REMARK   25  A    between atoms: _60  and  _63
REMARK   26  A    between atoms: _63  and  _64
REMARK   27  A    between atoms: _67  and  _69
REMARK   28  A    between atoms: _69  and  _70
REMARK   29  A    between atoms: _69  and  _72
REMARK   30  A    between atoms: _72  and  _73
REMARK   31  A    between atoms: _73  and  _74
REMARK   32  A    between atoms: _76  and  _78
REMARK   33  A    between atoms: _78  and  _79
REMARK   34  A    between atoms: _78  and  _81
REMARK   35  A    between atoms: _81  and  _82
REMARK   36  A    between atoms: _82  and  _83
REMARK   37  A    between atoms: _85  and  _87
REMARK   38  A    between atoms: _87  and  _88
REMARK   39  A    between atoms: _91  and  _93
REMARK   40  A    between atoms: _93  and  _94
REMARK   41  A    between atoms: _93  and  _96
REMARK   42  A    between atoms: _96  and  _97
REMARK   43  A    between atoms: _102  and  _103
REMARK   44  A    between atoms: _105  and  _107
REMARK   45  A    between atoms: _107  and  _108
REMARK   46  A    between atoms: _107  and  _110
REMARK   47  A    between atoms: _110  and  _111
REMARK   48  A    between atoms: _117  and  _119
REMARK   49  A    between atoms: _119  and  _120
REMARK   50  A    between atoms: _119  and  _122
REMARK   51  A    between atoms: _122  and  _123
REMARK   52  A    between atoms: _128  and  _130
REMARK   53  A    between atoms: _130  and  _131
REMARK   54  A    between atoms: _130  and  _133
REMARK   55  A    between atoms: _133  and  _134
REMARK   56  A    between atoms: _139  and  _141
REMARK   57  A    between atoms: _141  and  _142
REMARK   58  A    between atoms: _141  and  _144
REMARK   59  A    between atoms: _144  and  _145
REMARK   60  A    between atoms: _148  and  _150
REMARK   61  A    between atoms: _150  and  _151
REMARK   62  A    between atoms: _154  and  _156
REMARK   63  A    between atoms: _156  and  _157
REMARK   64  A    between atoms: _156  and  _159
REMARK   65  A    between atoms: _159  and  _160
REMARK   66  A    between atoms: _163  and  _165
REMARK   67  A    between atoms: _165  and  _166
REMARK   68  A    between atoms: _169  and  _171
REMARK   69  A    between atoms: _171  and  _172
REMARK   70  A    between atoms: _171  and  _174
REMARK   71  A    between atoms: _174  and  _175
REMARK   72  A    between atoms: _181  and  _183
REMARK   73  A    between atoms: _183  and  _184
REMARK   74  A    between atoms: _183  and  _186
REMARK   75  A    between atoms: _186  and  _187
REMARK   76  A    between atoms: _190  and  _192
REMARK   77  A    between atoms: _192  and  _193
REMARK   78  A    between atoms: _192  and  _195
REMARK   79  A    between atoms: _195  and  _196
REMARK   80  A    between atoms: _201  and  _203
REMARK   81  A    between atoms: _203  and  _204
REMARK   82  A    between atoms: _203  and  _206
REMARK   83  A    between atoms: _206  and  _207
REMARK   84  A    between atoms: _211  and  FE_414
REMARK   85  A    between atoms: _212  and  _214
REMARK   86  A    between atoms: _214  and  _215
REMARK   87  A    between atoms: _214  and  _217
REMARK   88  A    between atoms: _217  and  _218
REMARK   89  A    between atoms: _224  and  _226
REMARK   90  A    between atoms: _226  and  _227
REMARK   91  A    between atoms: _226  and  _229
REMARK   92  A    between atoms: _229  and  _230
REMARK   93  A    between atoms: _230  and  _231
REMARK   94  A    between atoms: _233  and  _235
REMARK   95  A    between atoms: _235  and  _236
REMARK   96  A    between atoms: _235  and  _238
REMARK   97  A    between atoms: _238  and  _239
REMARK   98  A    between atoms: _241  and  _243
REMARK   99  A    between atoms: _243  and  _244
REMARK  100  A    between atoms: _243  and  _246
REMARK  101  A    between atoms: _246  and  _247
REMARK  102  A    between atoms: _247  and  _248
REMARK  103  A    between atoms: _248  and  _249
REMARK  104  A    between atoms: _258  and  _260
REMARK  105  A    between atoms: _260  and  _261
REMARK  106  A    between atoms: _260  and  _263
REMARK  107  A    between atoms: _263  and  _264
REMARK  108  A    between atoms: _269  and  _271
REMARK  109  A    between atoms: _271  and  _272
REMARK  110  A    between atoms: _271  and  _274
REMARK  111  A    between atoms: _274  and  _275
REMARK  112  A    between atoms: _278  and  _280
REMARK  113  A    between atoms: _280  and  _281
REMARK  114  A    between atoms: _280  and  _283
REMARK  115  A    between atoms: _283  and  _284
REMARK  116  A    between atoms: _289  and  _291
REMARK  117  A    between atoms: _291  and  _292
REMARK  118  A    between atoms: _291  and  _294
REMARK  119  A    between atoms: _294  and  _295
REMARK  120  A    between atoms: _298  and  _300
REMARK  121  A    between atoms: _300  and  _301
REMARK  122  A    between atoms: _300  and  _303
REMARK  123  A    between atoms: _303  and  _304
REMARK  124  A    between atoms: _309  and  _311
REMARK  125  A    between atoms: _311  and  _312
REMARK  126  A    between atoms: _311  and  _314
REMARK  127  A    between atoms: _314  and  _315
REMARK  128  A    between atoms: _315  and  _316
REMARK  129  A    between atoms: _318  and  _320
REMARK  130  A    between atoms: _320  and  _321
REMARK  131  A    between atoms: _320  and  _323
REMARK  132  A    between atoms: _323  and  _324
REMARK  133  A    between atoms: _326  and  _328
REMARK  134  A    between atoms: _328  and  _329
REMARK  135  A    between atoms: _328  and  _331
REMARK  136  A    between atoms: _331  and  _332
REMARK  137  A    between atoms: _337  and  _338
REMARK  138  A    between atoms: _340  and  _342
REMARK  139  A    between atoms: _342  and  _343
REMARK  140  A    between atoms: _342  and  _345
REMARK  141  A    between atoms: _345  and  _346
REMARK  142  A    between atoms: _346  and  _347
REMARK  143  A    between atoms: _350  and  _352
REMARK  144  A    between atoms: _352  and  _353
REMARK  145  A    between atoms: _352  and  _355
REMARK  146  A    between atoms: _355  and  _356
REMARK  147  A    between atoms: _356  and  _357
REMARK  148  A    between atoms: _357  and  _358
REMARK  149  A    between atoms: _358  and  FE_414
REMARK  150  A    between atoms: _360  and  _362
REMARK  151  A    between atoms: _362  and  _363
REMARK  152  A    between atoms: _362  and  _365
REMARK  153  A    between atoms: _365  and  _366
REMARK  154  A    between atoms: _371  and  _373
REMARK  155  A    between atoms: _373  and  _374
REMARK  156  A    between atoms: _373  and  _376
REMARK  157  A    between atoms: _376  and  _377
REMARK  158  A    between atoms: _380  and  _381
REMARK  159  A    between atoms: _386  and  _388
REMARK  160  A    between atoms: _388  and  _389
REMARK  161  A    between atoms: _388  and  _391
REMARK  162  A    between atoms: _391  and  _392
REMARK  163  A    between atoms: _394  and  _396
REMARK  164  A    between atoms: _396  and  _397
REMARK  165  A    between atoms: _396  and  _399
REMARK  166  A    between atoms: _399  and  _400
REMARK  167  A    between atoms: _400  and  _401
REMARK  168  A    between atoms: _403  and  _405
REMARK  169  A    between atoms: _405  and  _406
REMARK  170  A    between atoms: _405  and  _408
REMARK  171  A    between atoms: _408  and  _409
REMARK                            x       y       z     vdW  Elec       q    Type
REMARK                         _______ _______ _______ _____ _____    ______ ____
ROOT
ATOM      1  O   HOH     1      27.926  26.482  10.881  0.00  0.00    +0.000 OA
ENDROOT
TORSDOF 0
REMARK  Name = ../refined-set-2016/1lgt/1lgt_pocket.pdb
REMARK  171 active torsions:
REMARK  status: ('A' for Active; 'I' for Inactive)
REMARK    1  A    between atoms: _1  and  _3
REMARK    2  A    between atoms: _3  and  _4
REMARK    3  A    between atoms: _3  and  _6
REMARK    4  A    between atoms: _6  and  _7
REMARK    5  A    between atoms: _11  and  FE_414
REMARK    6  A    between atoms: _12  and  _14
REMARK    7  A    between atoms: _14  and  _15
REMARK    8  A    between atoms: _14  and  _17
REMARK    9  A    between atoms: _17  and  _18
REMARK   10  A    between atoms: _24  and  _26
REMARK   11  A    between atoms: _26  and  _27
REMARK   12  A    between atoms: _26  and  _29
REMARK   13  A    between atoms: _32  and  _34
REMARK   14  A    between atoms: _34  and  _35
REMARK   15  A    between atoms: _34  and  _37
REMARK   16  A    between atoms: _37  and  _38
REMARK   17  A    between atoms: _38  and  _39
REMARK   18  A    between atoms: _39  and  _40
REMARK   19  A    between atoms: _49  and  _51
REMARK   20  A    between atoms: _51  and  _52
REMARK   21  A    between atoms: _51  and  _54
REMARK   22  A    between atoms: _54  and  _55
REMARK   23  A    between atoms: _58  and  _60
REMARK   24  A    between atoms: _60  and  _61
REMARK   25  A    between atoms: _60  and  _63
REMARK   26  A    between atoms: _63  and  _64
REMARK   27  A    between atoms: _67  and  _69
REMARK   28  A    between atoms: _69  and  _70
REMARK   29  A    between atoms: _69  and  _72
REMARK   30  A    between atoms: _72  and  _73
REMARK   31  A    between atoms: _73  and  _74
REMARK   32  A    between atoms: _76  and  _78
REMARK   33  A    between atoms: _78  and  _79
REMARK   34  A    between atoms: _78  and  _81
REMARK   35  A    between atoms: _81  and  _82
REMARK   36  A    between atoms: _82  and  _83
REMARK   37  A    between atoms: _85  and  _87
REMARK   38  A    between atoms: _87  and  _88
REMARK   39  A    between atoms: _91  and  _93
REMARK   40  A    between atoms: _93  and  _94
REMARK   41  A    between atoms: _93  and  _96
REMARK   42  A    between atoms: _96  and  _97
REMARK   43  A    between atoms: _102  and  _103
REMARK   44  A    between atoms: _105  and  _107
REMARK   45  A    between atoms: _107  and  _108
REMARK   46  A    between atoms: _107  and  _110
REMARK   47  A    between atoms: _110  and  _111
REMARK   48  A    between atoms: _117  and  _119
REMARK   49  A    between atoms: _119  and  _120
REMARK   50  A    between atoms: _119  and  _122
REMARK   51  A    between atoms: _122  and  _123
REMARK   52  A    between atoms: _128  and  _130
REMARK   53  A    between atoms: _130  and  _131
REMARK   54  A    between atoms: _130  and  _133
REMARK   55  A    between atoms: _133  and  _134
REMARK   56  A    between atoms: _139  and  _141
REMARK   57  A    between atoms: _141  and  _142
REMARK   58  A    between atoms: _141  and  _144
REMARK   59  A    between atoms: _144  and  _145
REMARK   60  A    between atoms: _148  and  _150
REMARK   61  A    between atoms: _150  and  _151
REMARK   62  A    between atoms: _154  and  _156
REMARK   63  A    between atoms: _156  and  _157
REMARK   64  A    between atoms: _156  and  _159
REMARK   65  A    between atoms: _159  and  _160
REMARK   66  A    between atoms: _163  and  _165
REMARK   67  A    between atoms: _165  and  _166
REMARK   68  A    between atoms: _169  and  _171
REMARK   69  A    between atoms: _171  and  _172
REMARK   70  A    between atoms: _171  and  _174
REMARK   71  A    between atoms: _174  and  _175
REMARK   72  A    between atoms: _181  and  _183
REMARK   73  A    between atoms: _183  and  _184
REMARK   74  A    between atoms: _183  and  _186
REMARK   75  A    between atoms: _186  and  _187
REMARK   76  A    between atoms: _190  and  _192
REMARK   77  A    between atoms: _192  and  _193
REMARK   78  A    between atoms: _192  and  _195
REMARK   79  A    between atoms: _195  and  _196
REMARK   80  A    between atoms: _201  and  _203
REMARK   81  A    between atoms: _203  and  _204
REMARK   82  A    between atoms: _203  and  _206
REMARK   83  A    between atoms: _206  and  _207
REMARK   84  A    between atoms: _211  and  FE_414
REMARK   85  A    between atoms: _212  and  _214
REMARK   86  A    between atoms: _214  and  _215
REMARK   87  A    between atoms: _214  and  _217
REMARK   88  A    between atoms: _217  and  _218
REMARK   89  A    between atoms: _224  and  _226
REMARK   90  A    between atoms: _226  and  _227
REMARK   91  A    between atoms: _226  and  _229
REMARK   92  A    between atoms: _229  and  _230
REMARK   93  A    between atoms: _230  and  _231
REMARK   94  A    between atoms: _233  and  _235
REMARK   95  A    between atoms: _235  and  _236
REMARK   96  A    between atoms: _235  and  _238
REMARK   97  A    between atoms: _238  and  _239
REMARK   98  A    between atoms: _241  and  _243
REMARK   99  A    between atoms: _243  and  _244
REMARK  100  A    between atoms: _243  and  _246
REMARK  101  A    between atoms: _246  and  _247
REMARK  102  A    between atoms: _247  and  _248
REMARK  103  A    between atoms: _248  and  _249
REMARK  104  A    between atoms: _258  and  _260
REMARK  105  A    between atoms: _260  and  _261
REMARK  106  A    between atoms: _260  and  _263
REMARK  107  A    between atoms: _263  and  _264
REMARK  108  A    between atoms: _269  and  _271
REMARK  109  A    between atoms: _271  and  _272
REMARK  110  A    between atoms: _271  and  _274
REMARK  111  A    between atoms: _274  and  _275
REMARK  112  A    between atoms: _278  and  _280
REMARK  113  A    between atoms: _280  and  _281
REMARK  114  A    between atoms: _280  and  _283
REMARK  115  A    between atoms: _283  and  _284
REMARK  116  A    between atoms: _289  and  _291
REMARK  117  A    between atoms: _291  and  _292
REMARK  118  A    between atoms: _291  and  _294
REMARK  119  A    between atoms: _294  and  _295
REMARK  120  A    between atoms: _298  and  _300
REMARK  121  A    between atoms: _300  and  _301
REMARK  122  A    between atoms: _300  and  _303
REMARK  123  A    between atoms: _303  and  _304
REMARK  124  A    between atoms: _309  and  _311
REMARK  125  A    between atoms: _311  and  _312
REMARK  126  A    between atoms: _311  and  _314
REMARK  127  A    between atoms: _314  and  _315
REMARK  128  A    between atoms: _315  and  _316
REMARK  129  A    between atoms: _318  and  _320
REMARK  130  A    between atoms: _320  and  _321
REMARK  131  A    between atoms: _320  and  _323
REMARK  132  A    between atoms: _323  and  _324
REMARK  133  A    between atoms: _326  and  _328
REMARK  134  A    between atoms: _328  and  _329
REMARK  135  A    between atoms: _328  and  _331
REMARK  136  A    between atoms: _331  and  _332
REMARK  137  A    between atoms: _337  and  _338
REMARK  138  A    between atoms: _340  and  _342
REMARK  139  A    between atoms: _342  and  _343
REMARK  140  A    between atoms: _342  and  _345
REMARK  141  A    between atoms: _345  and  _346
REMARK  142  A    between atoms: _346  and  _347
REMARK  143  A    between atoms: _350  and  _352
REMARK  144  A    between atoms: _352  and  _353
REMARK  145  A    between atoms: _352  and  _355
REMARK  146  A    between atoms: _355  and  _356
REMARK  147  A    between atoms: _356  and  _357
REMARK  148  A    between atoms: _357  and  _358
REMARK  149  A    between atoms: _358  and  FE_414
REMARK  150  A    between atoms: _360  and  _362
REMARK  151  A    between atoms: _362  and  _363
REMARK  152  A    between atoms: _362  and  _365
REMARK  153  A    between atoms: _365  and  _366
REMARK  154  A    between atoms: _371  and  _373
REMARK  155  A    between atoms: _373  and  _374
REMARK  156  A    between atoms: _373  and  _376
REMARK  157  A    between atoms: _376  and  _377
REMARK  158  A    between atoms: _380  and  _381
REMARK  159  A    between atoms: _386  and  _388
REMARK  160  A    between atoms: _388  and  _389
REMARK  161  A    between atoms: _388  and  _391
REMARK  162  A    between atoms: _391  and  _392
REMARK  163  A    between atoms: _394  and  _396
REMARK  164  A    between atoms: _396  and  _397
REMARK  165  A    between atoms: _396  and  _399
REMARK  166  A    between atoms: _399  and  _400
REMARK  167  A    between atoms: _400  and  _401
REMARK  168  A    between atoms: _403  and  _405
REMARK  169  A    between atoms: _405  and  _406
REMARK  170  A    between atoms: _405  and  _408
REMARK  171  A    between atoms: _408  and  _409
REMARK                            x       y       z     vdW  Elec       q    Type
REMARK                         _______ _______ _______ _____ _____    ______ ____
ROOT
ATOM      1  O   HOH     1      27.434  29.564  12.127  0.00  0.00    +0.000 OA
ENDROOT
TORSDOF 0
REMARK  Name = ../refined-set-2016/1lgt/1lgt_pocket.pdb
REMARK  171 active torsions:
REMARK  status: ('A' for Active; 'I' for Inactive)
REMARK    1  A    between atoms: _1  and  _3
REMARK    2  A    between atoms: _3  and  _4
REMARK    3  A    between atoms: _3  and  _6
REMARK    4  A    between atoms: _6  and  _7
REMARK    5  A    between atoms: _11  and  FE_414
REMARK    6  A    between atoms: _12  and  _14
REMARK    7  A    between atoms: _14  and  _15
REMARK    8  A    between atoms: _14  and  _17
REMARK    9  A    between atoms: _17  and  _18
REMARK   10  A    between atoms: _24  and  _26
REMARK   11  A    between atoms: _26  and  _27
REMARK   12  A    between atoms: _26  and  _29
REMARK   13  A    between atoms: _32  and  _34
REMARK   14  A    between atoms: _34  and  _35
REMARK   15  A    between atoms: _34  and  _37
REMARK   16  A    between atoms: _37  and  _38
REMARK   17  A    between atoms: _38  and  _39
REMARK   18  A    between atoms: _39  and  _40
REMARK   19  A    between atoms: _49  and  _51
REMARK   20  A    between atoms: _51  and  _52
REMARK   21  A    between atoms: _51  and  _54
REMARK   22  A    between atoms: _54  and  _55
REMARK   23  A    between atoms: _58  and  _60
REMARK   24  A    between atoms: _60  and  _61
REMARK   25  A    between atoms: _60  and  _63
REMARK   26  A    between atoms: _63  and  _64
REMARK   27  A    between atoms: _67  and  _69
REMARK   28  A    between atoms: _69  and  _70
REMARK   29  A    between atoms: _69  and  _72
REMARK   30  A    between atoms: _72  and  _73
REMARK   31  A    between atoms: _73  and  _74
REMARK   32  A    between atoms: _76  and  _78
REMARK   33  A    between atoms: _78  and  _79
REMARK   34  A    between atoms: _78  and  _81
REMARK   35  A    between atoms: _81  and  _82
REMARK   36  A    between atoms: _82  and  _83
REMARK   37  A    between atoms: _85  and  _87
REMARK   38  A    between atoms: _87  and  _88
REMARK   39  A    between atoms: _91  and  _93
REMARK   40  A    between atoms: _93  and  _94
REMARK   41  A    between atoms: _93  and  _96
REMARK   42  A    between atoms: _96  and  _97
REMARK   43  A    between atoms: _102  and  _103
REMARK   44  A    between atoms: _105  and  _107
REMARK   45  A    between atoms: _107  and  _108
REMARK   46  A    between atoms: _107  and  _110
REMARK   47  A    between atoms: _110  and  _111
REMARK   48  A    between atoms: _117  and  _119
REMARK   49  A    between atoms: _119  and  _120
REMARK   50  A    between atoms: _119  and  _122
REMARK   51  A    between atoms: _122  and  _123
REMARK   52  A    between atoms: _128  and  _130
REMARK   53  A    between atoms: _130  and  _131
REMARK   54  A    between atoms: _130  and  _133
REMARK   55  A    between atoms: _133  and  _134
REMARK   56  A    between atoms: _139  and  _141
REMARK   57  A    between atoms: _141  and  _142
REMARK   58  A    between atoms: _141  and  _144
REMARK   59  A    between atoms: _144  and  _145
REMARK   60  A    between atoms: _148  and  _150
REMARK   61  A    between atoms: _150  and  _151
REMARK   62  A    between atoms: _154  and  _156
REMARK   63  A    between atoms: _156  and  _157
REMARK   64  A    between atoms: _156  and  _159
REMARK   65  A    between atoms: _159  and  _160
REMARK   66  A    between atoms: _163  and  _165
REMARK   67  A    between atoms: _165  and  _166
REMARK   68  A    between atoms: _169  and  _171
REMARK   69  A    between atoms: _171  and  _172
REMARK   70  A    between atoms: _171  and  _174
REMARK   71  A    between atoms: _174  and  _175
REMARK   72  A    between atoms: _181  and  _183
REMARK   73  A    between atoms: _183  and  _184
REMARK   74  A    between atoms: _183  and  _186
REMARK   75  A    between atoms: _186  and  _187
REMARK   76  A    between atoms: _190  and  _192
REMARK   77  A    between atoms: _192  and  _193
REMARK   78  A    between atoms: _192  and  _195
REMARK   79  A    between atoms: _195  and  _196
REMARK   80  A    between atoms: _201  and  _203
REMARK   81  A    between atoms: _203  and  _204
REMARK   82  A    between atoms: _203  and  _206
REMARK   83  A    between atoms: _206  and  _207
REMARK   84  A    between atoms: _211  and  FE_414
REMARK   85  A    between atoms: _212  and  _214
REMARK   86  A    between atoms: _214  and  _215
REMARK   87  A    between atoms: _214  and  _217
REMARK   88  A    between atoms: _217  and  _218
REMARK   89  A    between atoms: _224  and  _226
REMARK   90  A    between atoms: _226  and  _227
REMARK   91  A    between atoms: _226  and  _229
REMARK   92  A    between atoms: _229  and  _230
REMARK   93  A    between atoms: _230  and  _231
REMARK   94  A    between atoms: _233  and  _235
REMARK   95  A    between atoms: _235  and  _236
REMARK   96  A    between atoms: _235  and  _238
REMARK   97  A    between atoms: _238  and  _239
REMARK   98  A    between atoms: _241  and  _243
REMARK   99  A    between atoms: _243  and  _244
REMARK  100  A    between atoms: _243  and  _246
REMARK  101  A    between atoms: _246  and  _247
REMARK  102  A    between atoms: _247  and  _248
REMARK  103  A    between atoms: _248  and  _249
REMARK  104  A    between atoms: _258  and  _260
REMARK  105  A    between atoms: _260  and  _261
REMARK  106  A    between atoms: _260  and  _263
REMARK  107  A    between atoms: _263  and  _264
REMARK  108  A    between atoms: _269  and  _271
REMARK  109  A    between atoms: _271  and  _272
REMARK  110  A    between atoms: _271  and  _274
REMARK  111  A    between atoms: _274  and  _275
REMARK  112  A    between atoms: _278  and  _280
REMARK  113  A    between atoms: _280  and  _281
REMARK  114  A    between atoms: _280  and  _283
REMARK  115  A    between atoms: _283  and  _284
REMARK  116  A    between atoms: _289  and  _291
REMARK  117  A    between atoms: _291  and  _292
REMARK  118  A    between atoms: _291  and  _294
REMARK  119  A    between atoms: _294  and  _295
REMARK  120  A    between atoms: _298  and  _300
REMARK  121  A    between atoms: _300  and  _301
REMARK  122  A    between atoms: _300  and  _303
REMARK  123  A    between atoms: _303  and  _304
REMARK  124  A    between atoms: _309  and  _311
REMARK  125  A    between atoms: _311  and  _312
REMARK  126  A    between atoms: _311  and  _314
REMARK  127  A    between atoms: _314  and  _315
REMARK  128  A    between atoms: _315  and  _316
REMARK  129  A    between atoms: _318  and  _320
REMARK  130  A    between atoms: _320  and  _321
REMARK  131  A    between atoms: _320  and  _323
REMARK  132  A    between atoms: _323  and  _324
REMARK  133  A    between atoms: _326  and  _328
REMARK  134  A    between atoms: _328  and  _329
REMARK  135  A    between atoms: _328  and  _331
REMARK  136  A    between atoms: _331  and  _332
REMARK  137  A    between atoms: _337  and  _338
REMARK  138  A    between atoms: _340  and  _342
REMARK  139  A    between atoms: _342  and  _343
REMARK  140  A    between atoms: _342  and  _345
REMARK  141  A    between atoms: _345  and  _346
REMARK  142  A    between atoms: _346  and  _347
REMARK  143  A    between atoms: _350  and  _352
REMARK  144  A    between atoms: _352  and  _353
REMARK  145  A    between atoms: _352  and  _355
REMARK  146  A    between atoms: _355  and  _356
REMARK  147  A    between atoms: _356  and  _357
REMARK  148  A    between atoms: _357  and  _358
REMARK  149  A    between atoms: _358  and  FE_414
REMARK  150  A    between atoms: _360  and  _362
REMARK  151  A    between atoms: _362  and  _363
REMARK  152  A    between atoms: _362  and  _365
REMARK  153  A    between atoms: _365  and  _366
REMARK  154  A    between atoms: _371  and  _373
REMARK  155  A    between atoms: _373  and  _374
REMARK  156  A    between atoms: _373  and  _376
REMARK  157  A    between atoms: _376  and  _377
REMARK  158  A    between atoms: _380  and  _381
REMARK  159  A    between atoms: _386  and  _388
REMARK  160  A    between atoms: _388  and  _389
REMARK  161  A    between atoms: _388  and  _391
REMARK  162  A    between atoms: _391  and  _392
REMARK  163  A    between atoms: _394  and  _396
REMARK  164  A    between atoms: _396  and  _397
REMARK  165  A    between atoms: _396  and  _399
REMARK  166  A    between atoms: _399  and  _400
REMARK  167  A    between atoms: _400  and  _401
REMARK  168  A    between atoms: _403  and  _405
REMARK  169  A    between atoms: _405  and  _406
REMARK  170  A    between atoms: _405  and  _408
REMARK  171  A    between atoms: _408  and  _409
REMARK                            x       y       z     vdW  Elec       q    Type
REMARK                         _______ _______ _______ _____ _____    ______ ____
ROOT
ATOM      1  O   HOH     1      25.108  29.044  13.476  0.00  0.00    +0.000 OA
ENDROOT
TORSDOF 0
REMARK  Name = ../refined-set-2016/1lgt/1lgt_pocket.pdb
REMARK  171 active torsions:
REMARK  status: ('A' for Active; 'I' for Inactive)
REMARK    1  A    between atoms: _1  and  _3
REMARK    2  A    between atoms: _3  and  _4
REMARK    3  A    between atoms: _3  and  _6
REMARK    4  A    between atoms: _6  and  _7
REMARK    5  A    between atoms: _11  and  FE_414
REMARK    6  A    between atoms: _12  and  _14
REMARK    7  A    between atoms: _14  and  _15
REMARK    8  A    between atoms: _14  and  _17
REMARK    9  A    between atoms: _17  and  _18
REMARK   10  A    between atoms: _24  and  _26
REMARK   11  A    between atoms: _26  and  _27
REMARK   12  A    between atoms: _26  and  _29
REMARK   13  A    between atoms: _32  and  _34
REMARK   14  A    between atoms: _34  and  _35
REMARK   15  A    between atoms: _34  and  _37
REMARK   16  A    between atoms: _37  and  _38
REMARK   17  A    between atoms: _38  and  _39
REMARK   18  A    between atoms: _39  and  _40
REMARK   19  A    between atoms: _49  and  _51
REMARK   20  A    between atoms: _51  and  _52
REMARK   21  A    between atoms: _51  and  _54
REMARK   22  A    between atoms: _54  and  _55
REMARK   23  A    between atoms: _58  and  _60
REMARK   24  A    between atoms: _60  and  _61
REMARK   25  A    between atoms: _60  and  _63
REMARK   26  A    between atoms: _63  and  _64
REMARK   27  A    between atoms: _67  and  _69
REMARK   28  A    between atoms: _69  and  _70
REMARK   29  A    between atoms: _69  and  _72
REMARK   30  A    between atoms: _72  and  _73
REMARK   31  A    between atoms: _73  and  _74
REMARK   32  A    between atoms: _76  and  _78
REMARK   33  A    between atoms: _78  and  _79
REMARK   34  A    between atoms: _78  and  _81
REMARK   35  A    between atoms: _81  and  _82
REMARK   36  A    between atoms: _82  and  _83
REMARK   37  A    between atoms: _85  and  _87
REMARK   38  A    between atoms: _87  and  _88
REMARK   39  A    between atoms: _91  and  _93
REMARK   40  A    between atoms: _93  and  _94
REMARK   41  A    between atoms: _93  and  _96
REMARK   42  A    between atoms: _96  and  _97
REMARK   43  A    between atoms: _102  and  _103
REMARK   44  A    between atoms: _105  and  _107
REMARK   45  A    between atoms: _107  and  _108
REMARK   46  A    between atoms: _107  and  _110
REMARK   47  A    between atoms: _110  and  _111
REMARK   48  A    between atoms: _117  and  _119
REMARK   49  A    between atoms: _119  and  _120
REMARK   50  A    between atoms: _119  and  _122
REMARK   51  A    between atoms: _122  and  _123
REMARK   52  A    between atoms: _128  and  _130
REMARK   53  A    between atoms: _130  and  _131
REMARK   54  A    between atoms: _130  and  _133
REMARK   55  A    between atoms: _133  and  _134
REMARK   56  A    between atoms: _139  and  _141
REMARK   57  A    between atoms: _141  and  _142
REMARK   58  A    between atoms: _141  and  _144
REMARK   59  A    between atoms: _144  and  _145
REMARK   60  A    between atoms: _148  and  _150
REMARK   61  A    between atoms: _150  and  _151
REMARK   62  A    between atoms: _154  and  _156
REMARK   63  A    between atoms: _156  and  _157
REMARK   64  A    between atoms: _156  and  _159
REMARK   65  A    between atoms: _159  and  _160
REMARK   66  A    between atoms: _163  and  _165
REMARK   67  A    between atoms: _165  and  _166
REMARK   68  A    between atoms: _169  and  _171
REMARK   69  A    between atoms: _171  and  _172
REMARK   70  A    between atoms: _171  and  _174
REMARK   71  A    between atoms: _174  and  _175
REMARK   72  A    between atoms: _181  and  _183
REMARK   73  A    between atoms: _183  and  _184
REMARK   74  A    between atoms: _183  and  _186
REMARK   75  A    between atoms: _186  and  _187
REMARK   76  A    between atoms: _190  and  _192
REMARK   77  A    between atoms: _192  and  _193
REMARK   78  A    between atoms: _192  and  _195
REMARK   79  A    between atoms: _195  and  _196
REMARK   80  A    between atoms: _201  and  _203
REMARK   81  A    between atoms: _203  and  _204
REMARK   82  A    between atoms: _203  and  _206
REMARK   83  A    between atoms: _206  and  _207
REMARK   84  A    between atoms: _211  and  FE_414
REMARK   85  A    between atoms: _212  and  _214
REMARK   86  A    between atoms: _214  and  _215
REMARK   87  A    between atoms: _214  and  _217
REMARK   88  A    between atoms: _217  and  _218
REMARK   89  A    between atoms: _224  and  _226
REMARK   90  A    between atoms: _226  and  _227
REMARK   91  A    between atoms: _226  and  _229
REMARK   92  A    between atoms: _229  and  _230
REMARK   93  A    between atoms: _230  and  _231
REMARK   94  A    between atoms: _233  and  _235
REMARK   95  A    between atoms: _235  and  _236
REMARK   96  A    between atoms: _235  and  _238
REMARK   97  A    between atoms: _238  and  _239
REMARK   98  A    between atoms: _241  and  _243
REMARK   99  A    between atoms: _243  and  _244
REMARK  100  A    between atoms: _243  and  _246
REMARK  101  A    between atoms: _246  and  _247
REMARK  102  A    between atoms: _247  and  _248
REMARK  103  A    between atoms: _248  and  _249
REMARK  104  A    between atoms: _258  and  _260
REMARK  105  A    between atoms: _260  and  _261
REMARK  106  A    between atoms: _260  and  _263
REMARK  107  A    between atoms: _263  and  _264
REMARK  108  A    between atoms: _269  and  _271
REMARK  109  A    between atoms: _271  and  _272
REMARK  110  A    between atoms: _271  and  _274
REMARK  111  A    between atoms: _274  and  _275
REMARK  112  A    between atoms: _278  and  _280
REMARK  113  A    between atoms: _280  and  _281
REMARK  114  A    between atoms: _280  and  _283
REMARK  115  A    between atoms: _283  and  _284
REMARK  116  A    between atoms: _289  and  _291
REMARK  117  A    between atoms: _291  and  _292
REMARK  118  A    between atoms: _291  and  _294
REMARK  119  A    between atoms: _294  and  _295
REMARK  120  A    between atoms: _298  and  _300
REMARK  121  A    between atoms: _300  and  _301
REMARK  122  A    between atoms: _300  and  _303
REMARK  123  A    between atoms: _303  and  _304
REMARK  124  A    between atoms: _309  and  _311
REMARK  125  A    between atoms: _311  and  _312
REMARK  126  A    between atoms: _311  and  _314
REMARK  127  A    between atoms: _314  and  _315
REMARK  128  A    between atoms: _315  and  _316
REMARK  129  A    between atoms: _318  and  _320
REMARK  130  A    between atoms: _320  and  _321
REMARK  131  A    between atoms: _320  and  _323
REMARK  132  A    between atoms: _323  and  _324
REMARK  133  A    between atoms: _326  and  _328
REMARK  134  A    between atoms: _328  and  _329
REMARK  135  A    between atoms: _328  and  _331
REMARK  136  A    between atoms: _331  and  _332
REMARK  137  A    between atoms: _337  and  _338
REMARK  138  A    between atoms: _340  and  _342
REMARK  139  A    between atoms: _342  and  _343
REMARK  140  A    between atoms: _342  and  _345
REMARK  141  A    between atoms: _345  and  _346
REMARK  142  A    between atoms: _346  and  _347
REMARK  143  A    between atoms: _350  and  _352
REMARK  144  A    between atoms: _352  and  _353
REMARK  145  A    between atoms: _352  and  _355
REMARK  146  A    between atoms: _355  and  _356
REMARK  147  A    between atoms: _356  and  _357
REMARK  148  A    between atoms: _357  and  _358
REMARK  149  A    between atoms: _358  and  FE_414
REMARK  150  A    between atoms: _360  and  _362
REMARK  151  A    between atoms: _362  and  _363
REMARK  152  A    between atoms: _362  and  _365
REMARK  153  A    between atoms: _365  and  _366
REMARK  154  A    between atoms: _371  and  _373
REMARK  155  A    between atoms: _373  and  _374
REMARK  156  A    between atoms: _373  and  _376
REMARK  157  A    between atoms: _376  and  _377
REMARK  158  A    between atoms: _380  and  _381
REMARK  159  A    between atoms: _386  and  _388
REMARK  160  A    between atoms: _388  and  _389
REMARK  161  A    between atoms: _388  and  _391
REMARK  162  A    between atoms: _391  and  _392
REMARK  163  A    between atoms: _394  and  _396
REMARK  164  A    between atoms: _396  and  _397
REMARK  165  A    between atoms: _396  and  _399
REMARK  166  A    between atoms: _399  and  _400
REMARK  167  A    between atoms: _400  and  _401
REMARK  168  A    between atoms: _403  and  _405
REMARK  169  A    between atoms: _405  and  _406
REMARK  170  A    between atoms: _405  and  _408
REMARK  171  A    between atoms: _408  and  _409
REMARK                            x       y       z     vdW  Elec       q    Type
REMARK                         _______ _______ _______ _____ _____    ______ ____
ROOT
ATOM      1  O   HOH     1      27.618  27.334  15.464  0.00  0.00    +0.000 OA
ENDROOT
TORSDOF 0
REMARK  Name = ../refined-set-2016/1lgt/1lgt_pocket.pdb
REMARK  171 active torsions:
REMARK  status: ('A' for Active; 'I' for Inactive)
REMARK    1  A    between atoms: _1  and  _3
REMARK    2  A    between atoms: _3  and  _4
REMARK    3  A    between atoms: _3  and  _6
REMARK    4  A    between atoms: _6  and  _7
REMARK    5  A    between atoms: _11  and  FE_414
REMARK    6  A    between atoms: _12  and  _14
REMARK    7  A    between atoms: _14  and  _15
REMARK    8  A    between atoms: _14  and  _17
REMARK    9  A    between atoms: _17  and  _18
REMARK   10  A    between atoms: _24  and  _26
REMARK   11  A    between atoms: _26  and  _27
REMARK   12  A    between atoms: _26  and  _29
REMARK   13  A    between atoms: _32  and  _34
REMARK   14  A    between atoms: _34  and  _35
REMARK   15  A    between atoms: _34  and  _37
REMARK   16  A    between atoms: _37  and  _38
REMARK   17  A    between atoms: _38  and  _39
REMARK   18  A    between atoms: _39  and  _40
REMARK   19  A    between atoms: _49  and  _51
REMARK   20  A    between atoms: _51  and  _52
REMARK   21  A    between atoms: _51  and  _54
REMARK   22  A    between atoms: _54  and  _55
REMARK   23  A    between atoms: _58  and  _60
REMARK   24  A    between atoms: _60  and  _61
REMARK   25  A    between atoms: _60  and  _63
REMARK   26  A    between atoms: _63  and  _64
REMARK   27  A    between atoms: _67  and  _69
REMARK   28  A    between atoms: _69  and  _70
REMARK   29  A    between atoms: _69  and  _72
REMARK   30  A    between atoms: _72  and  _73
REMARK   31  A    between atoms: _73  and  _74
REMARK   32  A    between atoms: _76  and  _78
REMARK   33  A    between atoms: _78  and  _79
REMARK   34  A    between atoms: _78  and  _81
REMARK   35  A    between atoms: _81  and  _82
REMARK   36  A    between atoms: _82  and  _83
REMARK   37  A    between atoms: _85  and  _87
REMARK   38  A    between atoms: _87  and  _88
REMARK   39  A    between atoms: _91  and  _93
REMARK   40  A    between atoms: _93  and  _94
REMARK   41  A    between atoms: _93  and  _96
REMARK   42  A    between atoms: _96  and  _97
REMARK   43  A    between atoms: _102  and  _103
REMARK   44  A    between atoms: _105  and  _107
REMARK   45  A    between atoms: _107  and  _108
REMARK   46  A    between atoms: _107  and  _110
REMARK   47  A    between atoms: _110  and  _111
REMARK   48  A    between atoms: _117  and  _119
REMARK   49  A    between atoms: _119  and  _120
REMARK   50  A    between atoms: _119  and  _122
REMARK   51  A    between atoms: _122  and  _123
REMARK   52  A    between atoms: _128  and  _130
REMARK   53  A    between atoms: _130  and  _131
REMARK   54  A    between atoms: _130  and  _133
REMARK   55  A    between atoms: _133  and  _134
REMARK   56  A    between atoms: _139  and  _141
REMARK   57  A    between atoms: _141  and  _142
REMARK   58  A    between atoms: _141  and  _144
REMARK   59  A    between atoms: _144  and  _145
REMARK   60  A    between atoms: _148  and  _150
REMARK   61  A    between atoms: _150  and  _151
REMARK   62  A    between atoms: _154  and  _156
REMARK   63  A    between atoms: _156  and  _157
REMARK   64  A    between atoms: _156  and  _159
REMARK   65  A    between atoms: _159  and  _160
REMARK   66  A    between atoms: _163  and  _165
REMARK   67  A    between atoms: _165  and  _166
REMARK   68  A    between atoms: _169  and  _171
REMARK   69  A    between atoms: _171  and  _172
REMARK   70  A    between atoms: _171  and  _174
REMARK   71  A    between atoms: _174  and  _175
REMARK   72  A    between atoms: _181  and  _183
REMARK   73  A    between atoms: _183  and  _184
REMARK   74  A    between atoms: _183  and  _186
REMARK   75  A    between atoms: _186  and  _187
REMARK   76  A    between atoms: _190  and  _192
REMARK   77  A    between atoms: _192  and  _193
REMARK   78  A    between atoms: _192  and  _195
REMARK   79  A    between atoms: _195  and  _196
REMARK   80  A    between atoms: _201  and  _203
REMARK   81  A    between atoms: _203  and  _204
REMARK   82  A    between atoms: _203  and  _206
REMARK   83  A    between atoms: _206  and  _207
REMARK   84  A    between atoms: _211  and  FE_414
REMARK   85  A    between atoms: _212  and  _214
REMARK   86  A    between atoms: _214  and  _215
REMARK   87  A    between atoms: _214  and  _217
REMARK   88  A    between atoms: _217  and  _218
REMARK   89  A    between atoms: _224  and  _226
REMARK   90  A    between atoms: _226  and  _227
REMARK   91  A    between atoms: _226  and  _229
REMARK   92  A    between atoms: _229  and  _230
REMARK   93  A    between atoms: _230  and  _231
REMARK   94  A    between atoms: _233  and  _235
REMARK   95  A    between atoms: _235  and  _236
REMARK   96  A    between atoms: _235  and  _238
REMARK   97  A    between atoms: _238  and  _239
REMARK   98  A    between atoms: _241  and  _243
REMARK   99  A    between atoms: _243  and  _244
REMARK  100  A    between atoms: _243  and  _246
REMARK  101  A    between atoms: _246  and  _247
REMARK  102  A    between atoms: _247  and  _248
REMARK  103  A    between atoms: _248  and  _249
REMARK  104  A    between atoms: _258  and  _260
REMARK  105  A    between atoms: _260  and  _261
REMARK  106  A    between atoms: _260  and  _263
REMARK  107  A    between atoms: _263  and  _264
REMARK  108  A    between atoms: _269  and  _271
REMARK  109  A    between atoms: _271  and  _272
REMARK  110  A    between atoms: _271  and  _274
REMARK  111  A    between atoms: _274  and  _275
REMARK  112  A    between atoms: _278  and  _280
REMARK  113  A    between atoms: _280  and  _281
REMARK  114  A    between atoms: _280  and  _283
REMARK  115  A    between atoms: _283  and  _284
REMARK  116  A    between atoms: _289  and  _291
REMARK  117  A    between atoms: _291  and  _292
REMARK  118  A    between atoms: _291  and  _294
REMARK  119  A    between atoms: _294  and  _295
REMARK  120  A    between atoms: _298  and  _300
REMARK  121  A    between atoms: _300  and  _301
REMARK  122  A    between atoms: _300  and  _303
REMARK  123  A    between atoms: _303  and  _304
REMARK  124  A    between atoms: _309  and  _311
REMARK  125  A    between atoms: _311  and  _312
REMARK  126  A    between atoms: _311  and  _314
REMARK  127  A    between atoms: _314  and  _315
REMARK  128  A    between atoms: _315  and  _316
REMARK  129  A    between atoms: _318  and  _320
REMARK  130  A    between atoms: _320  and  _321
REMARK  131  A    between atoms: _320  and  _323
REMARK  132  A    between atoms: _323  and  _324
REMARK  133  A    between atoms: _326  and  _328
REMARK  134  A    between atoms: _328  and  _329
REMARK  135  A    between atoms: _328  and  _331
REMARK  136  A    between atoms: _331  and  _332
REMARK  137  A    between atoms: _337  and  _338
REMARK  138  A    between atoms: _340  and  _342
REMARK  139  A    between atoms: _342  and  _343
REMARK  140  A    between atoms: _342  and  _345
REMARK  141  A    between atoms: _345  and  _346
REMARK  142  A    between atoms: _346  and  _347
REMARK  143  A    between atoms: _350  and  _352
REMARK  144  A    between atoms: _352  and  _353
REMARK  145  A    between atoms: _352  and  _355
REMARK  146  A    between atoms: _355  and  _356
REMARK  147  A    between atoms: _356  and  _357
REMARK  148  A    between atoms: _357  and  _358
REMARK  149  A    between atoms: _358  and  FE_414
REMARK  150  A    between atoms: _360  and  _362
REMARK  151  A    between atoms: _362  and  _363
REMARK  152  A    between atoms: _362  and  _365
REMARK  153  A    between atoms: _365  and  _366
REMARK  154  A    between atoms: _371  and  _373
REMARK  155  A    between atoms: _373  and  _374
REMARK  156  A    between atoms: _373  and  _376
REMARK  157  A    between atoms: _376  and  _377
REMARK  158  A    between atoms: _380  and  _381
REMARK  159  A    between atoms: _386  and  _388
REMARK  160  A    between atoms: _388  and  _389
REMARK  161  A    between atoms: _388  and  _391
REMARK  162  A    between atoms: _391  and  _392
REMARK  163  A    between atoms: _394  and  _396
REMARK  164  A    between atoms: _396  and  _397
REMARK  165  A    between atoms: _396  and  _399
REMARK  166  A    between atoms: _399  and  _400
REMARK  167  A    between atoms: _400  and  _401
REMARK  168  A    between atoms: _403  and  _405
REMARK  169  A    between atoms: _405  and  _406
REMARK  170  A    between atoms: _405  and  _408
REMARK  171  A    between atoms: _408  and  _409
REMARK                            x       y       z     vdW  Elec       q    Type
REMARK                         _______ _______ _______ _____ _____    ______ ____
ROOT
ATOM      1  O   HOH     1      28.429  21.924  11.334  0.00  0.00    +0.000 OA
ENDROOT
TORSDOF 0
REMARK  Name = ../refined-set-2016/1lgt/1lgt_pocket.pdb
REMARK  171 active torsions:
REMARK  status: ('A' for Active; 'I' for Inactive)
REMARK    1  A    between atoms: _1  and  _3
REMARK    2  A    between atoms: _3  and  _4
REMARK    3  A    between atoms: _3  and  _6
REMARK    4  A    between atoms: _6  and  _7
REMARK    5  A    between atoms: _11  and  FE_414
REMARK    6  A    between atoms: _12  and  _14
REMARK    7  A    between atoms: _14  and  _15
REMARK    8  A    between atoms: _14  and  _17
REMARK    9  A    between atoms: _17  and  _18
REMARK   10  A    between atoms: _24  and  _26
REMARK   11  A    between atoms: _26  and  _27
REMARK   12  A    between atoms: _26  and  _29
REMARK   13  A    between atoms: _32  and  _34
REMARK   14  A    between atoms: _34  and  _35
REMARK   15  A    between atoms: _34  and  _37
REMARK   16  A    between atoms: _37  and  _38
REMARK   17  A    between atoms: _38  and  _39
REMARK   18  A    between atoms: _39  and  _40
REMARK   19  A    between atoms: _49  and  _51
REMARK   20  A    between atoms: _51  and  _52
REMARK   21  A    between atoms: _51  and  _54
REMARK   22  A    between atoms: _54  and  _55
REMARK   23  A    between atoms: _58  and  _60
REMARK   24  A    between atoms: _60  and  _61
REMARK   25  A    between atoms: _60  and  _63
REMARK   26  A    between atoms: _63  and  _64
REMARK   27  A    between atoms: _67  and  _69
REMARK   28  A    between atoms: _69  and  _70
REMARK   29  A    between atoms: _69  and  _72
REMARK   30  A    between atoms: _72  and  _73
REMARK   31  A    between atoms: _73  and  _74
REMARK   32  A    between atoms: _76  and  _78
REMARK   33  A    between atoms: _78  and  _79
REMARK   34  A    between atoms: _78  and  _81
REMARK   35  A    between atoms: _81  and  _82
REMARK   36  A    between atoms: _82  and  _83
REMARK   37  A    between atoms: _85  and  _87
REMARK   38  A    between atoms: _87  and  _88
REMARK   39  A    between atoms: _91  and  _93
REMARK   40  A    between atoms: _93  and  _94
REMARK   41  A    between atoms: _93  and  _96
REMARK   42  A    between atoms: _96  and  _97
REMARK   43  A    between atoms: _102  and  _103
REMARK   44  A    between atoms: _105  and  _107
REMARK   45  A    between atoms: _107  and  _108
REMARK   46  A    between atoms: _107  and  _110
REMARK   47  A    between atoms: _110  and  _111
REMARK   48  A    between atoms: _117  and  _119
REMARK   49  A    between atoms: _119  and  _120
REMARK   50  A    between atoms: _119  and  _122
REMARK   51  A    between atoms: _122  and  _123
REMARK   52  A    between atoms: _128  and  _130
REMARK   53  A    between atoms: _130  and  _131
REMARK   54  A    between atoms: _130  and  _133
REMARK   55  A    between atoms: _133  and  _134
REMARK   56  A    between atoms: _139  and  _141
REMARK   57  A    between atoms: _141  and  _142
REMARK   58  A    between atoms: _141  and  _144
REMARK   59  A    between atoms: _144  and  _145
REMARK   60  A    between atoms: _148  and  _150
REMARK   61  A    between atoms: _150  and  _151
REMARK   62  A    between atoms: _154  and  _156
REMARK   63  A    between atoms: _156  and  _157
REMARK   64  A    between atoms: _156  and  _159
REMARK   65  A    between atoms: _159  and  _160
REMARK   66  A    between atoms: _163  and  _165
REMARK   67  A    between atoms: _165  and  _166
REMARK   68  A    between atoms: _169  and  _171
REMARK   69  A    between atoms: _171  and  _172
REMARK   70  A    between atoms: _171  and  _174
REMARK   71  A    between atoms: _174  and  _175
REMARK   72  A    between atoms: _181  and  _183
REMARK   73  A    between atoms: _183  and  _184
REMARK   74  A    between atoms: _183  and  _186
REMARK   75  A    between atoms: _186  and  _187
REMARK   76  A    between atoms: _190  and  _192
REMARK   77  A    between atoms: _192  and  _193
REMARK   78  A    between atoms: _192  and  _195
REMARK   79  A    between atoms: _195  and  _196
REMARK   80  A    between atoms: _201  and  _203
REMARK   81  A    between atoms: _203  and  _204
REMARK   82  A    between atoms: _203  and  _206
REMARK   83  A    between atoms: _206  and  _207
REMARK   84  A    between atoms: _211  and  FE_414
REMARK   85  A    between atoms: _212  and  _214
REMARK   86  A    between atoms: _214  and  _215
REMARK   87  A    between atoms: _214  and  _217
REMARK   88  A    between atoms: _217  and  _218
REMARK   89  A    between atoms: _224  and  _226
REMARK   90  A    between atoms: _226  and  _227
REMARK   91  A    between atoms: _226  and  _229
REMARK   92  A    between atoms: _229  and  _230
REMARK   93  A    between atoms: _230  and  _231
REMARK   94  A    between atoms: _233  and  _235
REMARK   95  A    between atoms: _235  and  _236
REMARK   96  A    between atoms: _235  and  _238
REMARK   97  A    between atoms: _238  and  _239
REMARK   98  A    between atoms: _241  and  _243
REMARK   99  A    between atoms: _243  and  _244
REMARK  100  A    between atoms: _243  and  _246
REMARK  101  A    between atoms: _246  and  _247
REMARK  102  A    between atoms: _247  and  _248
REMARK  103  A    between atoms: _248  and  _249
REMARK  104  A    between atoms: _258  and  _260
REMARK  105  A    between atoms: _260  and  _261
REMARK  106  A    between atoms: _260  and  _263
REMARK  107  A    between atoms: _263  and  _264
REMARK  108  A    between atoms: _269  and  _271
REMARK  109  A    between atoms: _271  and  _272
REMARK  110  A    between atoms: _271  and  _274
REMARK  111  A    between atoms: _274  and  _275
REMARK  112  A    between atoms: _278  and  _280
REMARK  113  A    between atoms: _280  and  _281
REMARK  114  A    between atoms: _280  and  _283
REMARK  115  A    between atoms: _283  and  _284
REMARK  116  A    between atoms: _289  and  _291
REMARK  117  A    between atoms: _291  and  _292
REMARK  118  A    between atoms: _291  and  _294
REMARK  119  A    between atoms: _294  and  _295
REMARK  120  A    between atoms: _298  and  _300
REMARK  121  A    between atoms: _300  and  _301
REMARK  122  A    between atoms: _300  and  _303
REMARK  123  A    between atoms: _303  and  _304
REMARK  124  A    between atoms: _309  and  _311
REMARK  125  A    between atoms: _311  and  _312
REMARK  126  A    between atoms: _311  and  _314
REMARK  127  A    between atoms: _314  and  _315
REMARK  128  A    between atoms: _315  and  _316
REMARK  129  A    between atoms: _318  and  _320
REMARK  130  A    between atoms: _320  and  _321
REMARK  131  A    between atoms: _320  and  _323
REMARK  132  A    between atoms: _323  and  _324
REMARK  133  A    between atoms: _326  and  _328
REMARK  134  A    between atoms: _328  and  _329
REMARK  135  A    between atoms: _328  and  _331
REMARK  136  A    between atoms: _331  and  _332
REMARK  137  A    between atoms: _337  and  _338
REMARK  138  A    between atoms: _340  and  _342
REMARK  139  A    between atoms: _342  and  _343
REMARK  140  A    between atoms: _342  and  _345
REMARK  141  A    between atoms: _345  and  _346
REMARK  142  A    between atoms: _346  and  _347
REMARK  143  A    between atoms: _350  and  _352
REMARK  144  A    between atoms: _352  and  _353
REMARK  145  A    between atoms: _352  and  _355
REMARK  146  A    between atoms: _355  and  _356
REMARK  147  A    between atoms: _356  and  _357
REMARK  148  A    between atoms: _357  and  _358
REMARK  149  A    between atoms: _358  and  FE_414
REMARK  150  A    between atoms: _360  and  _362
REMARK  151  A    between atoms: _362  and  _363
REMARK  152  A    between atoms: _362  and  _365
REMARK  153  A    between atoms: _365  and  _366
REMARK  154  A    between atoms: _371  and  _373
REMARK  155  A    between atoms: _373  and  _374
REMARK  156  A    between atoms: _373  and  _376
REMARK  157  A    between atoms: _376  and  _377
REMARK  158  A    between atoms: _380  and  _381
REMARK  159  A    between atoms: _386  and  _388
REMARK  160  A    between atoms: _388  and  _389
REMARK  161  A    between atoms: _388  and  _391
REMARK  162  A    between atoms: _391  and  _392
REMARK  163  A    between atoms: _394  and  _396
REMARK  164  A    between atoms: _396  and  _397
REMARK  165  A    between atoms: _396  and  _399
REMARK  166  A    between atoms: _399  and  _400
REMARK  167  A    between atoms: _400  and  _401
REMARK  168  A    between atoms: _403  and  _405
REMARK  169  A    between atoms: _405  and  _406
REMARK  170  A    between atoms: _405  and  _408
REMARK  171  A    between atoms: _408  and  _409
REMARK                            x       y       z     vdW  Elec       q    Type
REMARK                         _______ _______ _______ _____ _____    ______ ____
ROOT
ATOM      1  O   HOH     1      28.790  24.174  14.271  0.00  0.00    +0.000 OA
ENDROOT
TORSDOF 0
REMARK  Name = ../refined-set-2016/1lgt/1lgt_pocket.pdb
REMARK  171 active torsions:
REMARK  status: ('A' for Active; 'I' for Inactive)
REMARK    1  A    between atoms: _1  and  _3
REMARK    2  A    between atoms: _3  and  _4
REMARK    3  A    between atoms: _3  and  _6
REMARK    4  A    between atoms: _6  and  _7
REMARK    5  A    between atoms: _11  and  FE_414
REMARK    6  A    between atoms: _12  and  _14
REMARK    7  A    between atoms: _14  and  _15
REMARK    8  A    between atoms: _14  and  _17
REMARK    9  A    between atoms: _17  and  _18
REMARK   10  A    between atoms: _24  and  _26
REMARK   11  A    between atoms: _26  and  _27
REMARK   12  A    between atoms: _26  and  _29
REMARK   13  A    between atoms: _32  and  _34
REMARK   14  A    between atoms: _34  and  _35
REMARK   15  A    between atoms: _34  and  _37
REMARK   16  A    between atoms: _37  and  _38
REMARK   17  A    between atoms: _38  and  _39
REMARK   18  A    between atoms: _39  and  _40
REMARK   19  A    between atoms: _49  and  _51
REMARK   20  A    between atoms: _51  and  _52
REMARK   21  A    between atoms: _51  and  _54
REMARK   22  A    between atoms: _54  and  _55
REMARK   23  A    between atoms: _58  and  _60
REMARK   24  A    between atoms: _60  and  _61
REMARK   25  A    between atoms: _60  and  _63
REMARK   26  A    between atoms: _63  and  _64
REMARK   27  A    between atoms: _67  and  _69
REMARK   28  A    between atoms: _69  and  _70
REMARK   29  A    between atoms: _69  and  _72
REMARK   30  A    between atoms: _72  and  _73
REMARK   31  A    between atoms: _73  and  _74
REMARK   32  A    between atoms: _76  and  _78
REMARK   33  A    between atoms: _78  and  _79
REMARK   34  A    between atoms: _78  and  _81
REMARK   35  A    between atoms: _81  and  _82
REMARK   36  A    between atoms: _82  and  _83
REMARK   37  A    between atoms: _85  and  _87
REMARK   38  A    between atoms: _87  and  _88
REMARK   39  A    between atoms: _91  and  _93
REMARK   40  A    between atoms: _93  and  _94
REMARK   41  A    between atoms: _93  and  _96
REMARK   42  A    between atoms: _96  and  _97
REMARK   43  A    between atoms: _102  and  _103
REMARK   44  A    between atoms: _105  and  _107
REMARK   45  A    between atoms: _107  and  _108
REMARK   46  A    between atoms: _107  and  _110
REMARK   47  A    between atoms: _110  and  _111
REMARK   48  A    between atoms: _117  and  _119
REMARK   49  A    between atoms: _119  and  _120
REMARK   50  A    between atoms: _119  and  _122
REMARK   51  A    between atoms: _122  and  _123
REMARK   52  A    between atoms: _128  and  _130
REMARK   53  A    between atoms: _130  and  _131
REMARK   54  A    between atoms: _130  and  _133
REMARK   55  A    between atoms: _133  and  _134
REMARK   56  A    between atoms: _139  and  _141
REMARK   57  A    between atoms: _141  and  _142
REMARK   58  A    between atoms: _141  and  _144
REMARK   59  A    between atoms: _144  and  _145
REMARK   60  A    between atoms: _148  and  _150
REMARK   61  A    between atoms: _150  and  _151
REMARK   62  A    between atoms: _154  and  _156
REMARK   63  A    between atoms: _156  and  _157
REMARK   64  A    between atoms: _156  and  _159
REMARK   65  A    between atoms: _159  and  _160
REMARK   66  A    between atoms: _163  and  _165
REMARK   67  A    between atoms: _165  and  _166
REMARK   68  A    between atoms: _169  and  _171
REMARK   69  A    between atoms: _171  and  _172
REMARK   70  A    between atoms: _171  and  _174
REMARK   71  A    between atoms: _174  and  _175
REMARK   72  A    between atoms: _181  and  _183
REMARK   73  A    between atoms: _183  and  _184
REMARK   74  A    between atoms: _183  and  _186
REMARK   75  A    between atoms: _186  and  _187
REMARK   76  A    between atoms: _190  and  _192
REMARK   77  A    between atoms: _192  and  _193
REMARK   78  A    between atoms: _192  and  _195
REMARK   79  A    between atoms: _195  and  _196
REMARK   80  A    between atoms: _201  and  _203
REMARK   81  A    between atoms: _203  and  _204
REMARK   82  A    between atoms: _203  and  _206
REMARK   83  A    between atoms: _206  and  _207
REMARK   84  A    between atoms: _211  and  FE_414
REMARK   85  A    between atoms: _212  and  _214
REMARK   86  A    between atoms: _214  and  _215
REMARK   87  A    between atoms: _214  and  _217
REMARK   88  A    between atoms: _217  and  _218
REMARK   89  A    between atoms: _224  and  _226
REMARK   90  A    between atoms: _226  and  _227
REMARK   91  A    between atoms: _226  and  _229
REMARK   92  A    between atoms: _229  and  _230
REMARK   93  A    between atoms: _230  and  _231
REMARK   94  A    between atoms: _233  and  _235
REMARK   95  A    between atoms: _235  and  _236
REMARK   96  A    between atoms: _235  and  _238
REMARK   97  A    between atoms: _238  and  _239
REMARK   98  A    between atoms: _241  and  _243
REMARK   99  A    between atoms: _243  and  _244
REMARK  100  A    between atoms: _243  and  _246
REMARK  101  A    between atoms: _246  and  _247
REMARK  102  A    between atoms: _247  and  _248
REMARK  103  A    between atoms: _248  and  _249
REMARK  104  A    between atoms: _258  and  _260
REMARK  105  A    between atoms: _260  and  _261
REMARK  106  A    between atoms: _260  and  _263
REMARK  107  A    between atoms: _263  and  _264
REMARK  108  A    between atoms: _269  and  _271
REMARK  109  A    between atoms: _271  and  _272
REMARK  110  A    between atoms: _271  and  _274
REMARK  111  A    between atoms: _274  and  _275
REMARK  112  A    between atoms: _278  and  _280
REMARK  113  A    between atoms: _280  and  _281
REMARK  114  A    between atoms: _280  and  _283
REMARK  115  A    between atoms: _283  and  _284
REMARK  116  A    between atoms: _289  and  _291
REMARK  117  A    between atoms: _291  and  _292
REMARK  118  A    between atoms: _291  and  _294
REMARK  119  A    between atoms: _294  and  _295
REMARK  120  A    between atoms: _298  and  _300
REMARK  121  A    between atoms: _300  and  _301
REMARK  122  A    between atoms: _300  and  _303
REMARK  123  A    between atoms: _303  and  _304
REMARK  124  A    between atoms: _309  and  _311
REMARK  125  A    between atoms: _311  and  _312
REMARK  126  A    between atoms: _311  and  _314
REMARK  127  A    between atoms: _314  and  _315
REMARK  128  A    between atoms: _315  and  _316
REMARK  129  A    between atoms: _318  and  _320
REMARK  130  A    between atoms: _320  and  _321
REMARK  131  A    between atoms: _320  and  _323
REMARK  132  A    between atoms: _323  and  _324
REMARK  133  A    between atoms: _326  and  _328
REMARK  134  A    between atoms: _328  and  _329
REMARK  135  A    between atoms: _328  and  _331
REMARK  136  A    between atoms: _331  and  _332
REMARK  137  A    between atoms: _337  and  _338
REMARK  138  A    between atoms: _340  and  _342
REMARK  139  A    between atoms: _342  and  _343
REMARK  140  A    between atoms: _342  and  _345
REMARK  141  A    between atoms: _345  and  _346
REMARK  142  A    between atoms: _346  and  _347
REMARK  143  A    between atoms: _350  and  _352
REMARK  144  A    between atoms: _352  and  _353
REMARK  145  A    between atoms: _352  and  _355
REMARK  146  A    between atoms: _355  and  _356
REMARK  147  A    between atoms: _356  and  _357
REMARK  148  A    between atoms: _357  and  _358
REMARK  149  A    between atoms: _358  and  FE_414
REMARK  150  A    between atoms: _360  and  _362
REMARK  151  A    between atoms: _362  and  _363
REMARK  152  A    between atoms: _362  and  _365
REMARK  153  A    between atoms: _365  and  _366
REMARK  154  A    between atoms: _371  and  _373
REMARK  155  A    between atoms: _373  and  _374
REMARK  156  A    between atoms: _373  and  _376
REMARK  157  A    between atoms: _376  and  _377
REMARK  158  A    between atoms: _380  and  _381
REMARK  159  A    between atoms: _386  and  _388
REMARK  160  A    between atoms: _388  and  _389
REMARK  161  A    between atoms: _388  and  _391
REMARK  162  A    between atoms: _391  and  _392
REMARK  163  A    between atoms: _394  and  _396
REMARK  164  A    between atoms: _396  and  _397
REMARK  165  A    between atoms: _396  and  _399
REMARK  166  A    between atoms: _399  and  _400
REMARK  167  A    between atoms: _400  and  _401
REMARK  168  A    between atoms: _403  and  _405
REMARK  169  A    between atoms: _405  and  _406
REMARK  170  A    between atoms: _405  and  _408
REMARK  171  A    between atoms: _408  and  _409
REMARK                            x       y       z     vdW  Elec       q    Type
REMARK                         _______ _______ _______ _____ _____    ______ ____
ROOT
ATOM      1  O   HOH     1      26.448  26.833  12.916  0.00  0.00    +0.000 OA
ENDROOT
TORSDOF 0
