REMARK  Name = ../refined-set-2016/3wmc/3wmc_pocket.pdb
REMARK  140 active torsions:
REMARK  status: ('A' for Active; 'I' for Inactive)
REMARK    1  A    between atoms: _1  and  _3
REMARK    2  A    between atoms: _3  and  _4
REMARK    3  A    between atoms: _3  and  _6
REMARK    4  A    between atoms: _6  and  _7
REMARK    5  A    between atoms: _10  and  _12
REMARK    6  A    between atoms: _12  and  _13
REMARK    7  A    between atoms: _12  and  _15
REMARK    8  A    between atoms: _15  and  _16
REMARK    9  A    between atoms: _16  and  _17
REMARK   10  A    between atoms: _17  and  _18
REMARK   11  A    between atoms: _27  and  _29
REMARK   12  A    between atoms: _29  and  _30
REMARK   13  A    between atoms: _29  and  _32
REMARK   14  A    between atoms: _32  and  _33
REMARK   15  A    between atoms: _38  and  _40
REMARK   16  A    between atoms: _40  and  _41
REMARK   17  A    between atoms: _40  and  _43
REMARK   18  A    between atoms: _43  and  _44
REMARK   19  A    between atoms: _47  and  _49
REMARK   20  A    between atoms: _49  and  _50
REMARK   21  A    between atoms: _49  and  _52
REMARK   22  A    between atoms: _52  and  _53
REMARK   23  A    between atoms: _53  and  _54
REMARK   24  A    between atoms: _57  and  _59
REMARK   25  A    between atoms: _59  and  _60
REMARK   26  A    between atoms: _59  and  _62
REMARK   27  A    between atoms: _62  and  _63
REMARK   28  A    between atoms: _66  and  _68
REMARK   29  A    between atoms: _68  and  _69
REMARK   30  A    between atoms: _68  and  _71
REMARK   31  A    between atoms: _71  and  _72
REMARK   32  A    between atoms: _77  and  _79
REMARK   33  A    between atoms: _79  and  _80
REMARK   34  A    between atoms: _79  and  _82
REMARK   35  A    between atoms: _82  and  _83
REMARK   36  A    between atoms: _93  and  _95
REMARK   37  A    between atoms: _95  and  _96
REMARK   38  A    between atoms: _95  and  _98
REMARK   39  A    between atoms: _101  and  _103
REMARK   40  A    between atoms: _103  and  _104
REMARK   41  A    between atoms: _103  and  _106
REMARK   42  A    between atoms: _106  and  _107
REMARK   43  A    between atoms: _107  and  _108
REMARK   44  A    between atoms: _111  and  _113
REMARK   45  A    between atoms: _113  and  _114
REMARK   46  A    between atoms: _113  and  _116
REMARK   47  A    between atoms: _116  and  _117
REMARK   48  A    between atoms: _122  and  _124
REMARK   49  A    between atoms: _124  and  _125
REMARK   50  A    between atoms: _127  and  _129
REMARK   51  A    between atoms: _129  and  _130
REMARK   52  A    between atoms: _132  and  _134
REMARK   53  A    between atoms: _134  and  _135
REMARK   54  A    between atoms: _134  and  _137
REMARK   55  A    between atoms: _137  and  _138
REMARK   56  A    between atoms: _141  and  _143
REMARK   57  A    between atoms: _143  and  _144
REMARK   58  A    between atoms: _143  and  _146
REMARK   59  A    between atoms: _146  and  _147
REMARK   60  A    between atoms: _147  and  _148
REMARK   61  A    between atoms: _151  and  _153
REMARK   62  A    between atoms: _153  and  _154
REMARK   63  A    between atoms: _153  and  _156
REMARK   64  A    between atoms: _156  and  _157
REMARK   65  A    between atoms: _160  and  _162
REMARK   66  A    between atoms: _162  and  _163
REMARK   67  A    between atoms: _162  and  _165
REMARK   68  A    between atoms: _165  and  _166
REMARK   69  A    between atoms: _176  and  _178
REMARK   70  A    between atoms: _178  and  _179
REMARK   71  A    between atoms: _178  and  _181
REMARK   72  A    between atoms: _181  and  _182
REMARK   73  A    between atoms: _185  and  _187
REMARK   74  A    between atoms: _187  and  _188
REMARK   75  A    between atoms: _187  and  _190
REMARK   76  A    between atoms: _190  and  _191
REMARK   77  A    between atoms: _191  and  _192
REMARK   78  A    between atoms: _197  and  _199
REMARK   79  A    between atoms: _199  and  _200
REMARK   80  A    between atoms: _199  and  _202
REMARK   81  A    between atoms: _205  and  _207
REMARK   82  A    between atoms: _207  and  _208
REMARK   83  A    between atoms: _207  and  _210
REMARK   84  A    between atoms: _210  and  _211
REMARK   85  A    between atoms: _221  and  _223
REMARK   86  A    between atoms: _223  and  _224
REMARK   87  A    between atoms: _223  and  _226
REMARK   88  A    between atoms: _226  and  _227
REMARK   89  A    between atoms: _230  and  _232
REMARK   90  A    between atoms: _232  and  _233
REMARK   91  A    between atoms: _232  and  _235
REMARK   92  A    between atoms: _235  and  _236
REMARK   93  A    between atoms: _239  and  _241
REMARK   94  A    between atoms: _241  and  _242
REMARK   95  A    between atoms: _241  and  _244
REMARK   96  A    between atoms: _244  and  _245
REMARK   97  A    between atoms: _247  and  _249
REMARK   98  A    between atoms: _249  and  _250
REMARK   99  A    between atoms: _249  and  _252
REMARK  100  A    between atoms: _252  and  _253
REMARK  101  A    between atoms: _258  and  _259
REMARK  102  A    between atoms: _261  and  _263
REMARK  103  A    between atoms: _263  and  _264
REMARK  104  A    between atoms: _263  and  _266
REMARK  105  A    between atoms: _266  and  _267
REMARK  106  A    between atoms: _272  and  _273
REMARK  107  A    between atoms: _275  and  _277
REMARK  108  A    between atoms: _277  and  _278
REMARK  109  A    between atoms: _277  and  _280
REMARK  110  A    between atoms: _280  and  _281
REMARK  111  A    between atoms: _284  and  _286
REMARK  112  A    between atoms: _286  and  _287
REMARK  113  A    between atoms: _286  and  _289
REMARK  114  A    between atoms: _289  and  _290
REMARK  115  A    between atoms: _300  and  _302
REMARK  116  A    between atoms: _302  and  _303
REMARK  117  A    between atoms: _302  and  _305
REMARK  118  A    between atoms: _305  and  _306
REMARK  119  A    between atoms: _311  and  _313
REMARK  120  A    between atoms: _313  and  _314
REMARK  121  A    between atoms: _313  and  _316
REMARK  122  A    between atoms: _316  and  _317
REMARK  123  A    between atoms: _327  and  _329
REMARK  124  A    between atoms: _329  and  _330
REMARK  125  A    between atoms: _329  and  _332
REMARK  126  A    between atoms: _334  and  _336
REMARK  127  A    between atoms: _336  and  _337
REMARK  128  A    between atoms: _336  and  _339
REMARK  129  A    between atoms: _339  and  _340
REMARK  130  A    between atoms: _342  and  _344
REMARK  131  A    between atoms: _344  and  _345
REMARK  132  A    between atoms: _348  and  _350
REMARK  133  A    between atoms: _350  and  _351
REMARK  134  A    between atoms: _350  and  _353
REMARK  135  A    between atoms: _353  and  _354
REMARK  136  A    between atoms: _364  and  _366
REMARK  137  A    between atoms: _366  and  _367
REMARK  138  A    between atoms: _366  and  _369
REMARK  139  A    between atoms: _369  and  _370
REMARK  140  A    between atoms: _370  and  _371
REMARK                            x       y       z     vdW  Elec       q    Type
REMARK                         _______ _______ _______ _____ _____    ______ ____
ROOT
ATOM      1  CA  LEU A   1     -49.148   8.702 189.491  0.00  0.00    +0.133 C 
ENDROOT
BRANCH   1   2
ATOM      2  N   LEU A   1     -49.104   9.748 190.505  0.00  0.00    -0.239 NA
ATOM      3  H   LEU A   1     -48.270   9.823 191.121  0.00  0.00    +0.142 HD
ENDBRANCH   1   2
BRANCH   1   4
ATOM      4  C   LEU A   1     -49.729   7.450 190.122  0.00  0.00    +0.224 C 
ATOM      5  O   LEU A   1     -49.209   6.954 191.125  0.00  0.00    -0.287 OA
ENDBRANCH   1   4
BRANCH   1   6
ATOM      6  CB  LEU A   1     -47.737   8.406 188.963  0.00  0.00    +0.025 C 
BRANCH   6   7
ATOM      7  CG  LEU A   1     -47.549   7.370 187.842  0.00  0.00    +0.002 C 
ATOM      8  CD2 LEU A   1     -47.530   5.942 188.357  0.00  0.00    +0.000 C 
ATOM      9  CD1 LEU A   1     -46.242   7.650 187.166  0.00  0.00    +0.000 C 
ENDBRANCH   6   7
ENDBRANCH   1   6
TORSDOF 4
REMARK  Name = ../refined-set-2016/3wmc/3wmc_pocket.pdb
REMARK  140 active torsions:
REMARK  status: ('A' for Active; 'I' for Inactive)
REMARK    1  A    between atoms: _1  and  _3
REMARK    2  A    between atoms: _3  and  _4
REMARK    3  A    between atoms: _3  and  _6
REMARK    4  A    between atoms: _6  and  _7
REMARK    5  A    between atoms: _10  and  _12
REMARK    6  A    between atoms: _12  and  _13
REMARK    7  A    between atoms: _12  and  _15
REMARK    8  A    between atoms: _15  and  _16
REMARK    9  A    between atoms: _16  and  _17
REMARK   10  A    between atoms: _17  and  _18
REMARK   11  A    between atoms: _27  and  _29
REMARK   12  A    between atoms: _29  and  _30
REMARK   13  A    between atoms: _29  and  _32
REMARK   14  A    between atoms: _32  and  _33
REMARK   15  A    between atoms: _38  and  _40
REMARK   16  A    between atoms: _40  and  _41
REMARK   17  A    between atoms: _40  and  _43
REMARK   18  A    between atoms: _43  and  _44
REMARK   19  A    between atoms: _47  and  _49
REMARK   20  A    between atoms: _49  and  _50
REMARK   21  A    between atoms: _49  and  _52
REMARK   22  A    between atoms: _52  and  _53
REMARK   23  A    between atoms: _53  and  _54
REMARK   24  A    between atoms: _57  and  _59
REMARK   25  A    between atoms: _59  and  _60
REMARK   26  A    between atoms: _59  and  _62
REMARK   27  A    between atoms: _62  and  _63
REMARK   28  A    between atoms: _66  and  _68
REMARK   29  A    between atoms: _68  and  _69
REMARK   30  A    between atoms: _68  and  _71
REMARK   31  A    between atoms: _71  and  _72
REMARK   32  A    between atoms: _77  and  _79
REMARK   33  A    between atoms: _79  and  _80
REMARK   34  A    between atoms: _79  and  _82
REMARK   35  A    between atoms: _82  and  _83
REMARK   36  A    between atoms: _93  and  _95
REMARK   37  A    between atoms: _95  and  _96
REMARK   38  A    between atoms: _95  and  _98
REMARK   39  A    between atoms: _101  and  _103
REMARK   40  A    between atoms: _103  and  _104
REMARK   41  A    between atoms: _103  and  _106
REMARK   42  A    between atoms: _106  and  _107
REMARK   43  A    between atoms: _107  and  _108
REMARK   44  A    between atoms: _111  and  _113
REMARK   45  A    between atoms: _113  and  _114
REMARK   46  A    between atoms: _113  and  _116
REMARK   47  A    between atoms: _116  and  _117
REMARK   48  A    between atoms: _122  and  _124
REMARK   49  A    between atoms: _124  and  _125
REMARK   50  A    between atoms: _127  and  _129
REMARK   51  A    between atoms: _129  and  _130
REMARK   52  A    between atoms: _132  and  _134
REMARK   53  A    between atoms: _134  and  _135
REMARK   54  A    between atoms: _134  and  _137
REMARK   55  A    between atoms: _137  and  _138
REMARK   56  A    between atoms: _141  and  _143
REMARK   57  A    between atoms: _143  and  _144
REMARK   58  A    between atoms: _143  and  _146
REMARK   59  A    between atoms: _146  and  _147
REMARK   60  A    between atoms: _147  and  _148
REMARK   61  A    between atoms: _151  and  _153
REMARK   62  A    between atoms: _153  and  _154
REMARK   63  A    between atoms: _153  and  _156
REMARK   64  A    between atoms: _156  and  _157
REMARK   65  A    between atoms: _160  and  _162
REMARK   66  A    between atoms: _162  and  _163
REMARK   67  A    between atoms: _162  and  _165
REMARK   68  A    between atoms: _165  and  _166
REMARK   69  A    between atoms: _176  and  _178
REMARK   70  A    between atoms: _178  and  _179
REMARK   71  A    between atoms: _178  and  _181
REMARK   72  A    between atoms: _181  and  _182
REMARK   73  A    between atoms: _185  and  _187
REMARK   74  A    between atoms: _187  and  _188
REMARK   75  A    between atoms: _187  and  _190
REMARK   76  A    between atoms: _190  and  _191
REMARK   77  A    between atoms: _191  and  _192
REMARK   78  A    between atoms: _197  and  _199
REMARK   79  A    between atoms: _199  and  _200
REMARK   80  A    between atoms: _199  and  _202
REMARK   81  A    between atoms: _205  and  _207
REMARK   82  A    between atoms: _207  and  _208
REMARK   83  A    between atoms: _207  and  _210
REMARK   84  A    between atoms: _210  and  _211
REMARK   85  A    between atoms: _221  and  _223
REMARK   86  A    between atoms: _223  and  _224
REMARK   87  A    between atoms: _223  and  _226
REMARK   88  A    between atoms: _226  and  _227
REMARK   89  A    between atoms: _230  and  _232
REMARK   90  A    between atoms: _232  and  _233
REMARK   91  A    between atoms: _232  and  _235
REMARK   92  A    between atoms: _235  and  _236
REMARK   93  A    between atoms: _239  and  _241
REMARK   94  A    between atoms: _241  and  _242
REMARK   95  A    between atoms: _241  and  _244
REMARK   96  A    between atoms: _244  and  _245
REMARK   97  A    between atoms: _247  and  _249
REMARK   98  A    between atoms: _249  and  _250
REMARK   99  A    between atoms: _249  and  _252
REMARK  100  A    between atoms: _252  and  _253
REMARK  101  A    between atoms: _258  and  _259
REMARK  102  A    between atoms: _261  and  _263
REMARK  103  A    between atoms: _263  and  _264
REMARK  104  A    between atoms: _263  and  _266
REMARK  105  A    between atoms: _266  and  _267
REMARK  106  A    between atoms: _272  and  _273
REMARK  107  A    between atoms: _275  and  _277
REMARK  108  A    between atoms: _277  and  _278
REMARK  109  A    between atoms: _277  and  _280
REMARK  110  A    between atoms: _280  and  _281
REMARK  111  A    between atoms: _284  and  _286
REMARK  112  A    between atoms: _286  and  _287
REMARK  113  A    between atoms: _286  and  _289
REMARK  114  A    between atoms: _289  and  _290
REMARK  115  A    between atoms: _300  and  _302
REMARK  116  A    between atoms: _302  and  _303
REMARK  117  A    between atoms: _302  and  _305
REMARK  118  A    between atoms: _305  and  _306
REMARK  119  A    between atoms: _311  and  _313
REMARK  120  A    between atoms: _313  and  _314
REMARK  121  A    between atoms: _313  and  _316
REMARK  122  A    between atoms: _316  and  _317
REMARK  123  A    between atoms: _327  and  _329
REMARK  124  A    between atoms: _329  and  _330
REMARK  125  A    between atoms: _329  and  _332
REMARK  126  A    between atoms: _334  and  _336
REMARK  127  A    between atoms: _336  and  _337
REMARK  128  A    between atoms: _336  and  _339
REMARK  129  A    between atoms: _339  and  _340
REMARK  130  A    between atoms: _342  and  _344
REMARK  131  A    between atoms: _344  and  _345
REMARK  132  A    between atoms: _348  and  _350
REMARK  133  A    between atoms: _350  and  _351
REMARK  134  A    between atoms: _350  and  _353
REMARK  135  A    between atoms: _353  and  _354
REMARK  136  A    between atoms: _364  and  _366
REMARK  137  A    between atoms: _366  and  _367
REMARK  138  A    between atoms: _366  and  _369
REMARK  139  A    between atoms: _369  and  _370
REMARK  140  A    between atoms: _370  and  _371
REMARK                            x       y       z     vdW  Elec       q    Type
REMARK                         _______ _______ _______ _____ _____    ______ ____
ROOT
ATOM      1  NE  ARG A   1     -45.667  -2.700 185.805  0.00  0.00    -0.265 N 
ATOM      2  CZ  ARG A   1     -44.792  -1.712 185.966  0.00  0.00    +0.342 C 
ATOM      3  NH2 ARG A   1     -45.087  -0.684 186.758  0.00  0.00    -0.292 N 
ATOM      4 HH21 ARG A   1     -46.002  -0.653 187.251  0.00  0.00    +0.255 HD
ATOM      5 HH22 ARG A   1     -44.402   0.089 186.884  0.00  0.00    +0.255 HD
ATOM      6  NH1 ARG A   1     -43.628  -1.743 185.329  0.00  0.00    -0.292 N 
ATOM      7 HH11 ARG A   1     -42.945  -0.969 185.456  0.00  0.00    +0.255 HD
ATOM      8 HH12 ARG A   1     -43.399  -2.541 184.703  0.00  0.00    +0.255 HD
ATOM      9  HE  ARG A   1     -45.413  -3.480 185.166  0.00  0.00    +0.259 HD
ENDROOT
BRANCH   1  10
ATOM     10  CD  ARG A   1     -46.967  -2.753 186.474  0.00  0.00    +0.174 C 
BRANCH  10  11
ATOM     11  CG  ARG A   1     -46.840  -3.395 187.859  0.00  0.00    +0.045 C 
BRANCH  11  12
ATOM     12  CB  ARG A   1     -48.154  -3.365 188.636  0.00  0.00    +0.029 C 
BRANCH  12  13
ATOM     13  CA  ARG A   1     -49.329  -4.036 187.919  0.00  0.00    +0.133 C 
BRANCH  13  14
ATOM     14  N   ARG A   1     -50.094  -3.048 187.153  0.00  0.00    -0.239 NA
ATOM     15  H   ARG A   1     -49.935  -2.034 187.322  0.00  0.00    +0.142 HD
ENDBRANCH  13  14
BRANCH  13  16
ATOM     16  C   ARG A   1     -50.254  -4.715 188.922  0.00  0.00    +0.224 C 
ATOM     17  O   ARG A   1     -50.015  -5.846 189.352  0.00  0.00    -0.287 OA
ENDBRANCH  13  16
ENDBRANCH  12  13
ENDBRANCH  11  12
ENDBRANCH  10  11
ENDBRANCH   1  10
TORSDOF 6
REMARK  Name = ../refined-set-2016/3wmc/3wmc_pocket.pdb
REMARK  140 active torsions:
REMARK  status: ('A' for Active; 'I' for Inactive)
REMARK    1  A    between atoms: _1  and  _3
REMARK    2  A    between atoms: _3  and  _4
REMARK    3  A    between atoms: _3  and  _6
REMARK    4  A    between atoms: _6  and  _7
REMARK    5  A    between atoms: _10  and  _12
REMARK    6  A    between atoms: _12  and  _13
REMARK    7  A    between atoms: _12  and  _15
REMARK    8  A    between atoms: _15  and  _16
REMARK    9  A    between atoms: _16  and  _17
REMARK   10  A    between atoms: _17  and  _18
REMARK   11  A    between atoms: _27  and  _29
REMARK   12  A    between atoms: _29  and  _30
REMARK   13  A    between atoms: _29  and  _32
REMARK   14  A    between atoms: _32  and  _33
REMARK   15  A    between atoms: _38  and  _40
REMARK   16  A    between atoms: _40  and  _41
REMARK   17  A    between atoms: _40  and  _43
REMARK   18  A    between atoms: _43  and  _44
REMARK   19  A    between atoms: _47  and  _49
REMARK   20  A    between atoms: _49  and  _50
REMARK   21  A    between atoms: _49  and  _52
REMARK   22  A    between atoms: _52  and  _53
REMARK   23  A    between atoms: _53  and  _54
REMARK   24  A    between atoms: _57  and  _59
REMARK   25  A    between atoms: _59  and  _60
REMARK   26  A    between atoms: _59  and  _62
REMARK   27  A    between atoms: _62  and  _63
REMARK   28  A    between atoms: _66  and  _68
REMARK   29  A    between atoms: _68  and  _69
REMARK   30  A    between atoms: _68  and  _71
REMARK   31  A    between atoms: _71  and  _72
REMARK   32  A    between atoms: _77  and  _79
REMARK   33  A    between atoms: _79  and  _80
REMARK   34  A    between atoms: _79  and  _82
REMARK   35  A    between atoms: _82  and  _83
REMARK   36  A    between atoms: _93  and  _95
REMARK   37  A    between atoms: _95  and  _96
REMARK   38  A    between atoms: _95  and  _98
REMARK   39  A    between atoms: _101  and  _103
REMARK   40  A    between atoms: _103  and  _104
REMARK   41  A    between atoms: _103  and  _106
REMARK   42  A    between atoms: _106  and  _107
REMARK   43  A    between atoms: _107  and  _108
REMARK   44  A    between atoms: _111  and  _113
REMARK   45  A    between atoms: _113  and  _114
REMARK   46  A    between atoms: _113  and  _116
REMARK   47  A    between atoms: _116  and  _117
REMARK   48  A    between atoms: _122  and  _124
REMARK   49  A    between atoms: _124  and  _125
REMARK   50  A    between atoms: _127  and  _129
REMARK   51  A    between atoms: _129  and  _130
REMARK   52  A    between atoms: _132  and  _134
REMARK   53  A    between atoms: _134  and  _135
REMARK   54  A    between atoms: _134  and  _137
REMARK   55  A    between atoms: _137  and  _138
REMARK   56  A    between atoms: _141  and  _143
REMARK   57  A    between atoms: _143  and  _144
REMARK   58  A    between atoms: _143  and  _146
REMARK   59  A    between atoms: _146  and  _147
REMARK   60  A    between atoms: _147  and  _148
REMARK   61  A    between atoms: _151  and  _153
REMARK   62  A    between atoms: _153  and  _154
REMARK   63  A    between atoms: _153  and  _156
REMARK   64  A    between atoms: _156  and  _157
REMARK   65  A    between atoms: _160  and  _162
REMARK   66  A    between atoms: _162  and  _163
REMARK   67  A    between atoms: _162  and  _165
REMARK   68  A    between atoms: _165  and  _166
REMARK   69  A    between atoms: _176  and  _178
REMARK   70  A    between atoms: _178  and  _179
REMARK   71  A    between atoms: _178  and  _181
REMARK   72  A    between atoms: _181  and  _182
REMARK   73  A    between atoms: _185  and  _187
REMARK   74  A    between atoms: _187  and  _188
REMARK   75  A    between atoms: _187  and  _190
REMARK   76  A    between atoms: _190  and  _191
REMARK   77  A    between atoms: _191  and  _192
REMARK   78  A    between atoms: _197  and  _199
REMARK   79  A    between atoms: _199  and  _200
REMARK   80  A    between atoms: _199  and  _202
REMARK   81  A    between atoms: _205  and  _207
REMARK   82  A    between atoms: _207  and  _208
REMARK   83  A    between atoms: _207  and  _210
REMARK   84  A    between atoms: _210  and  _211
REMARK   85  A    between atoms: _221  and  _223
REMARK   86  A    between atoms: _223  and  _224
REMARK   87  A    between atoms: _223  and  _226
REMARK   88  A    between atoms: _226  and  _227
REMARK   89  A    between atoms: _230  and  _232
REMARK   90  A    between atoms: _232  and  _233
REMARK   91  A    between atoms: _232  and  _235
REMARK   92  A    between atoms: _235  and  _236
REMARK   93  A    between atoms: _239  and  _241
REMARK   94  A    between atoms: _241  and  _242
REMARK   95  A    between atoms: _241  and  _244
REMARK   96  A    between atoms: _244  and  _245
REMARK   97  A    between atoms: _247  and  _249
REMARK   98  A    between atoms: _249  and  _250
REMARK   99  A    between atoms: _249  and  _252
REMARK  100  A    between atoms: _252  and  _253
REMARK  101  A    between atoms: _258  and  _259
REMARK  102  A    between atoms: _261  and  _263
REMARK  103  A    between atoms: _263  and  _264
REMARK  104  A    between atoms: _263  and  _266
REMARK  105  A    between atoms: _266  and  _267
REMARK  106  A    between atoms: _272  and  _273
REMARK  107  A    between atoms: _275  and  _277
REMARK  108  A    between atoms: _277  and  _278
REMARK  109  A    between atoms: _277  and  _280
REMARK  110  A    between atoms: _280  and  _281
REMARK  111  A    between atoms: _284  and  _286
REMARK  112  A    between atoms: _286  and  _287
REMARK  113  A    between atoms: _286  and  _289
REMARK  114  A    between atoms: _289  and  _290
REMARK  115  A    between atoms: _300  and  _302
REMARK  116  A    between atoms: _302  and  _303
REMARK  117  A    between atoms: _302  and  _305
REMARK  118  A    between atoms: _305  and  _306
REMARK  119  A    between atoms: _311  and  _313
REMARK  120  A    between atoms: _313  and  _314
REMARK  121  A    between atoms: _313  and  _316
REMARK  122  A    between atoms: _316  and  _317
REMARK  123  A    between atoms: _327  and  _329
REMARK  124  A    between atoms: _329  and  _330
REMARK  125  A    between atoms: _329  and  _332
REMARK  126  A    between atoms: _334  and  _336
REMARK  127  A    between atoms: _336  and  _337
REMARK  128  A    between atoms: _336  and  _339
REMARK  129  A    between atoms: _339  and  _340
REMARK  130  A    between atoms: _342  and  _344
REMARK  131  A    between atoms: _344  and  _345
REMARK  132  A    between atoms: _348  and  _350
REMARK  133  A    between atoms: _350  and  _351
REMARK  134  A    between atoms: _350  and  _353
REMARK  135  A    between atoms: _353  and  _354
REMARK  136  A    between atoms: _364  and  _366
REMARK  137  A    between atoms: _366  and  _367
REMARK  138  A    between atoms: _366  and  _369
REMARK  139  A    between atoms: _369  and  _370
REMARK  140  A    between atoms: _370  and  _371
REMARK                            x       y       z     vdW  Elec       q    Type
REMARK                         _______ _______ _______ _____ _____    ______ ____
ROOT
ATOM      1  CB  HIS A   1     -49.441   4.389 185.117  0.00  0.00    +0.072 C 
ENDROOT
BRANCH   1   2
ATOM      2  CG  HIS A   1     -48.476   3.484 184.421  0.00  0.00    +0.082 A 
ATOM      3  CD2 HIS A   1     -48.378   2.132 184.389  0.00  0.00    +0.115 A 
ATOM      4  NE2 HIS A   1     -47.291   1.815 183.613  0.00  0.00    -0.221 NA
ATOM      5  CE1 HIS A   1     -46.728   2.937 183.186  0.00  0.00    +0.199 A 
ATOM      6  ND1 HIS A   1     -47.419   3.957 183.664  0.00  0.00    -0.227 NA
ENDBRANCH   1   2
BRANCH   1   7
ATOM      7  CA  HIS A   1     -50.735   4.654 184.341  0.00  0.00    +0.139 C 
BRANCH   7   8
ATOM      8  N   HIS A   1     -51.566   5.617 185.064  0.00  0.00    -0.239 NA
ATOM      9  H   HIS A   1     -51.386   5.775 186.076  0.00  0.00    +0.142 HD
ENDBRANCH   7   8
BRANCH   7  10
ATOM     10  C   HIS A   1     -51.560   3.384 184.162  0.00  0.00    +0.224 C 
ATOM     11  O   HIS A   1     -51.485   2.441 184.964  0.00  0.00    -0.287 OA
ENDBRANCH   7  10
ENDBRANCH   1   7
TORSDOF 4
REMARK  Name = ../refined-set-2016/3wmc/3wmc_pocket.pdb
REMARK  140 active torsions:
REMARK  status: ('A' for Active; 'I' for Inactive)
REMARK    1  A    between atoms: _1  and  _3
REMARK    2  A    between atoms: _3  and  _4
REMARK    3  A    between atoms: _3  and  _6
REMARK    4  A    between atoms: _6  and  _7
REMARK    5  A    between atoms: _10  and  _12
REMARK    6  A    between atoms: _12  and  _13
REMARK    7  A    between atoms: _12  and  _15
REMARK    8  A    between atoms: _15  and  _16
REMARK    9  A    between atoms: _16  and  _17
REMARK   10  A    between atoms: _17  and  _18
REMARK   11  A    between atoms: _27  and  _29
REMARK   12  A    between atoms: _29  and  _30
REMARK   13  A    between atoms: _29  and  _32
REMARK   14  A    between atoms: _32  and  _33
REMARK   15  A    between atoms: _38  and  _40
REMARK   16  A    between atoms: _40  and  _41
REMARK   17  A    between atoms: _40  and  _43
REMARK   18  A    between atoms: _43  and  _44
REMARK   19  A    between atoms: _47  and  _49
REMARK   20  A    between atoms: _49  and  _50
REMARK   21  A    between atoms: _49  and  _52
REMARK   22  A    between atoms: _52  and  _53
REMARK   23  A    between atoms: _53  and  _54
REMARK   24  A    between atoms: _57  and  _59
REMARK   25  A    between atoms: _59  and  _60
REMARK   26  A    between atoms: _59  and  _62
REMARK   27  A    between atoms: _62  and  _63
REMARK   28  A    between atoms: _66  and  _68
REMARK   29  A    between atoms: _68  and  _69
REMARK   30  A    between atoms: _68  and  _71
REMARK   31  A    between atoms: _71  and  _72
REMARK   32  A    between atoms: _77  and  _79
REMARK   33  A    between atoms: _79  and  _80
REMARK   34  A    between atoms: _79  and  _82
REMARK   35  A    between atoms: _82  and  _83
REMARK   36  A    between atoms: _93  and  _95
REMARK   37  A    between atoms: _95  and  _96
REMARK   38  A    between atoms: _95  and  _98
REMARK   39  A    between atoms: _101  and  _103
REMARK   40  A    between atoms: _103  and  _104
REMARK   41  A    between atoms: _103  and  _106
REMARK   42  A    between atoms: _106  and  _107
REMARK   43  A    between atoms: _107  and  _108
REMARK   44  A    between atoms: _111  and  _113
REMARK   45  A    between atoms: _113  and  _114
REMARK   46  A    between atoms: _113  and  _116
REMARK   47  A    between atoms: _116  and  _117
REMARK   48  A    between atoms: _122  and  _124
REMARK   49  A    between atoms: _124  and  _125
REMARK   50  A    between atoms: _127  and  _129
REMARK   51  A    between atoms: _129  and  _130
REMARK   52  A    between atoms: _132  and  _134
REMARK   53  A    between atoms: _134  and  _135
REMARK   54  A    between atoms: _134  and  _137
REMARK   55  A    between atoms: _137  and  _138
REMARK   56  A    between atoms: _141  and  _143
REMARK   57  A    between atoms: _143  and  _144
REMARK   58  A    between atoms: _143  and  _146
REMARK   59  A    between atoms: _146  and  _147
REMARK   60  A    between atoms: _147  and  _148
REMARK   61  A    between atoms: _151  and  _153
REMARK   62  A    between atoms: _153  and  _154
REMARK   63  A    between atoms: _153  and  _156
REMARK   64  A    between atoms: _156  and  _157
REMARK   65  A    between atoms: _160  and  _162
REMARK   66  A    between atoms: _162  and  _163
REMARK   67  A    between atoms: _162  and  _165
REMARK   68  A    between atoms: _165  and  _166
REMARK   69  A    between atoms: _176  and  _178
REMARK   70  A    between atoms: _178  and  _179
REMARK   71  A    between atoms: _178  and  _181
REMARK   72  A    between atoms: _181  and  _182
REMARK   73  A    between atoms: _185  and  _187
REMARK   74  A    between atoms: _187  and  _188
REMARK   75  A    between atoms: _187  and  _190
REMARK   76  A    between atoms: _190  and  _191
REMARK   77  A    between atoms: _191  and  _192
REMARK   78  A    between atoms: _197  and  _199
REMARK   79  A    between atoms: _199  and  _200
REMARK   80  A    between atoms: _199  and  _202
REMARK   81  A    between atoms: _205  and  _207
REMARK   82  A    between atoms: _207  and  _208
REMARK   83  A    between atoms: _207  and  _210
REMARK   84  A    between atoms: _210  and  _211
REMARK   85  A    between atoms: _221  and  _223
REMARK   86  A    between atoms: _223  and  _224
REMARK   87  A    between atoms: _223  and  _226
REMARK   88  A    between atoms: _226  and  _227
REMARK   89  A    between atoms: _230  and  _232
REMARK   90  A    between atoms: _232  and  _233
REMARK   91  A    between atoms: _232  and  _235
REMARK   92  A    between atoms: _235  and  _236
REMARK   93  A    between atoms: _239  and  _241
REMARK   94  A    between atoms: _241  and  _242
REMARK   95  A    between atoms: _241  and  _244
REMARK   96  A    between atoms: _244  and  _245
REMARK   97  A    between atoms: _247  and  _249
REMARK   98  A    between atoms: _249  and  _250
REMARK   99  A    between atoms: _249  and  _252
REMARK  100  A    between atoms: _252  and  _253
REMARK  101  A    between atoms: _258  and  _259
REMARK  102  A    between atoms: _261  and  _263
REMARK  103  A    between atoms: _263  and  _264
REMARK  104  A    between atoms: _263  and  _266
REMARK  105  A    between atoms: _266  and  _267
REMARK  106  A    between atoms: _272  and  _273
REMARK  107  A    between atoms: _275  and  _277
REMARK  108  A    between atoms: _277  and  _278
REMARK  109  A    between atoms: _277  and  _280
REMARK  110  A    between atoms: _280  and  _281
REMARK  111  A    between atoms: _284  and  _286
REMARK  112  A    between atoms: _286  and  _287
REMARK  113  A    between atoms: _286  and  _289
REMARK  114  A    between atoms: _289  and  _290
REMARK  115  A    between atoms: _300  and  _302
REMARK  116  A    between atoms: _302  and  _303
REMARK  117  A    between atoms: _302  and  _305
REMARK  118  A    between atoms: _305  and  _306
REMARK  119  A    between atoms: _311  and  _313
REMARK  120  A    between atoms: _313  and  _314
REMARK  121  A    between atoms: _313  and  _316
REMARK  122  A    between atoms: _316  and  _317
REMARK  123  A    between atoms: _327  and  _329
REMARK  124  A    between atoms: _329  and  _330
REMARK  125  A    between atoms: _329  and  _332
REMARK  126  A    between atoms: _334  and  _336
REMARK  127  A    between atoms: _336  and  _337
REMARK  128  A    between atoms: _336  and  _339
REMARK  129  A    between atoms: _339  and  _340
REMARK  130  A    between atoms: _342  and  _344
REMARK  131  A    between atoms: _344  and  _345
REMARK  132  A    between atoms: _348  and  _350
REMARK  133  A    between atoms: _350  and  _351
REMARK  134  A    between atoms: _350  and  _353
REMARK  135  A    between atoms: _353  and  _354
REMARK  136  A    between atoms: _364  and  _366
REMARK  137  A    between atoms: _366  and  _367
REMARK  138  A    between atoms: _366  and  _369
REMARK  139  A    between atoms: _369  and  _370
REMARK  140  A    between atoms: _370  and  _371
REMARK                            x       y       z     vdW  Elec       q    Type
REMARK                         _______ _______ _______ _____ _____    ______ ____
ROOT
ATOM      1  CA  ASP A   1     -48.262  -2.157 181.365  0.00  0.00    +0.144 C 
ENDROOT
BRANCH   1   2
ATOM      2  N   ASP A   1     -49.661  -1.761 181.268  0.00  0.00    -0.239 NA
ATOM      3  H   ASP A   1     -50.387  -2.496 181.150  0.00  0.00    +0.142 HD
ENDBRANCH   1   2
BRANCH   1   4
ATOM      4  C   ASP A   1     -48.178  -3.590 180.891  0.00  0.00    +0.225 C 
ATOM      5  O   ASP A   1     -49.145  -4.115 180.334  0.00  0.00    -0.287 OA
ENDBRANCH   1   4
BRANCH   1   6
ATOM      6  CB  ASP A   1     -47.728  -2.019 182.796  0.00  0.00    +0.139 C 
BRANCH   6   7
ATOM      7  CG  ASP A   1     -46.255  -1.660 182.829  0.00  0.00    +0.367 C 
ATOM      8  OD2 ASP A   1     -45.925  -0.495 183.152  0.00  0.00    -0.246 OA
ATOM      9  OD1 ASP A   1     -45.418  -2.540 182.519  0.00  0.00    -0.246 OA
ENDBRANCH   6   7
ENDBRANCH   1   6
TORSDOF 4
REMARK  Name = ../refined-set-2016/3wmc/3wmc_pocket.pdb
REMARK  140 active torsions:
REMARK  status: ('A' for Active; 'I' for Inactive)
REMARK    1  A    between atoms: _1  and  _3
REMARK    2  A    between atoms: _3  and  _4
REMARK    3  A    between atoms: _3  and  _6
REMARK    4  A    between atoms: _6  and  _7
REMARK    5  A    between atoms: _10  and  _12
REMARK    6  A    between atoms: _12  and  _13
REMARK    7  A    between atoms: _12  and  _15
REMARK    8  A    between atoms: _15  and  _16
REMARK    9  A    between atoms: _16  and  _17
REMARK   10  A    between atoms: _17  and  _18
REMARK   11  A    between atoms: _27  and  _29
REMARK   12  A    between atoms: _29  and  _30
REMARK   13  A    between atoms: _29  and  _32
REMARK   14  A    between atoms: _32  and  _33
REMARK   15  A    between atoms: _38  and  _40
REMARK   16  A    between atoms: _40  and  _41
REMARK   17  A    between atoms: _40  and  _43
REMARK   18  A    between atoms: _43  and  _44
REMARK   19  A    between atoms: _47  and  _49
REMARK   20  A    between atoms: _49  and  _50
REMARK   21  A    between atoms: _49  and  _52
REMARK   22  A    between atoms: _52  and  _53
REMARK   23  A    between atoms: _53  and  _54
REMARK   24  A    between atoms: _57  and  _59
REMARK   25  A    between atoms: _59  and  _60
REMARK   26  A    between atoms: _59  and  _62
REMARK   27  A    between atoms: _62  and  _63
REMARK   28  A    between atoms: _66  and  _68
REMARK   29  A    between atoms: _68  and  _69
REMARK   30  A    between atoms: _68  and  _71
REMARK   31  A    between atoms: _71  and  _72
REMARK   32  A    between atoms: _77  and  _79
REMARK   33  A    between atoms: _79  and  _80
REMARK   34  A    between atoms: _79  and  _82
REMARK   35  A    between atoms: _82  and  _83
REMARK   36  A    between atoms: _93  and  _95
REMARK   37  A    between atoms: _95  and  _96
REMARK   38  A    between atoms: _95  and  _98
REMARK   39  A    between atoms: _101  and  _103
REMARK   40  A    between atoms: _103  and  _104
REMARK   41  A    between atoms: _103  and  _106
REMARK   42  A    between atoms: _106  and  _107
REMARK   43  A    between atoms: _107  and  _108
REMARK   44  A    between atoms: _111  and  _113
REMARK   45  A    between atoms: _113  and  _114
REMARK   46  A    between atoms: _113  and  _116
REMARK   47  A    between atoms: _116  and  _117
REMARK   48  A    between atoms: _122  and  _124
REMARK   49  A    between atoms: _124  and  _125
REMARK   50  A    between atoms: _127  and  _129
REMARK   51  A    between atoms: _129  and  _130
REMARK   52  A    between atoms: _132  and  _134
REMARK   53  A    between atoms: _134  and  _135
REMARK   54  A    between atoms: _134  and  _137
REMARK   55  A    between atoms: _137  and  _138
REMARK   56  A    between atoms: _141  and  _143
REMARK   57  A    between atoms: _143  and  _144
REMARK   58  A    between atoms: _143  and  _146
REMARK   59  A    between atoms: _146  and  _147
REMARK   60  A    between atoms: _147  and  _148
REMARK   61  A    between atoms: _151  and  _153
REMARK   62  A    between atoms: _153  and  _154
REMARK   63  A    between atoms: _153  and  _156
REMARK   64  A    between atoms: _156  and  _157
REMARK   65  A    between atoms: _160  and  _162
REMARK   66  A    between atoms: _162  and  _163
REMARK   67  A    between atoms: _162  and  _165
REMARK   68  A    between atoms: _165  and  _166
REMARK   69  A    between atoms: _176  and  _178
REMARK   70  A    between atoms: _178  and  _179
REMARK   71  A    between atoms: _178  and  _181
REMARK   72  A    between atoms: _181  and  _182
REMARK   73  A    between atoms: _185  and  _187
REMARK   74  A    between atoms: _187  and  _188
REMARK   75  A    between atoms: _187  and  _190
REMARK   76  A    between atoms: _190  and  _191
REMARK   77  A    between atoms: _191  and  _192
REMARK   78  A    between atoms: _197  and  _199
REMARK   79  A    between atoms: _199  and  _200
REMARK   80  A    between atoms: _199  and  _202
REMARK   81  A    between atoms: _205  and  _207
REMARK   82  A    between atoms: _207  and  _208
REMARK   83  A    between atoms: _207  and  _210
REMARK   84  A    between atoms: _210  and  _211
REMARK   85  A    between atoms: _221  and  _223
REMARK   86  A    between atoms: _223  and  _224
REMARK   87  A    between atoms: _223  and  _226
REMARK   88  A    between atoms: _226  and  _227
REMARK   89  A    between atoms: _230  and  _232
REMARK   90  A    between atoms: _232  and  _233
REMARK   91  A    between atoms: _232  and  _235
REMARK   92  A    between atoms: _235  and  _236
REMARK   93  A    between atoms: _239  and  _241
REMARK   94  A    between atoms: _241  and  _242
REMARK   95  A    between atoms: _241  and  _244
REMARK   96  A    between atoms: _244  and  _245
REMARK   97  A    between atoms: _247  and  _249
REMARK   98  A    between atoms: _249  and  _250
REMARK   99  A    between atoms: _249  and  _252
REMARK  100  A    between atoms: _252  and  _253
REMARK  101  A    between atoms: _258  and  _259
REMARK  102  A    between atoms: _261  and  _263
REMARK  103  A    between atoms: _263  and  _264
REMARK  104  A    between atoms: _263  and  _266
REMARK  105  A    between atoms: _266  and  _267
REMARK  106  A    between atoms: _272  and  _273
REMARK  107  A    between atoms: _275  and  _277
REMARK  108  A    between atoms: _277  and  _278
REMARK  109  A    between atoms: _277  and  _280
REMARK  110  A    between atoms: _280  and  _281
REMARK  111  A    between atoms: _284  and  _286
REMARK  112  A    between atoms: _286  and  _287
REMARK  113  A    between atoms: _286  and  _289
REMARK  114  A    between atoms: _289  and  _290
REMARK  115  A    between atoms: _300  and  _302
REMARK  116  A    between atoms: _302  and  _303
REMARK  117  A    between atoms: _302  and  _305
REMARK  118  A    between atoms: _305  and  _306
REMARK  119  A    between atoms: _311  and  _313
REMARK  120  A    between atoms: _313  and  _314
REMARK  121  A    between atoms: _313  and  _316
REMARK  122  A    between atoms: _316  and  _317
REMARK  123  A    between atoms: _327  and  _329
REMARK  124  A    between atoms: _329  and  _330
REMARK  125  A    between atoms: _329  and  _332
REMARK  126  A    between atoms: _334  and  _336
REMARK  127  A    between atoms: _336  and  _337
REMARK  128  A    between atoms: _336  and  _339
REMARK  129  A    between atoms: _339  and  _340
REMARK  130  A    between atoms: _342  and  _344
REMARK  131  A    between atoms: _344  and  _345
REMARK  132  A    between atoms: _348  and  _350
REMARK  133  A    between atoms: _350  and  _351
REMARK  134  A    between atoms: _350  and  _353
REMARK  135  A    between atoms: _353  and  _354
REMARK  136  A    between atoms: _364  and  _366
REMARK  137  A    between atoms: _366  and  _367
REMARK  138  A    between atoms: _366  and  _369
REMARK  139  A    between atoms: _369  and  _370
REMARK  140  A    between atoms: _370  and  _371
REMARK                            x       y       z     vdW  Elec       q    Type
REMARK                         _______ _______ _______ _____ _____    ______ ____
ROOT
ATOM      1  CA  GLU A   1     -50.700   7.255 180.040  0.00  0.00    +0.134 C 
ENDROOT
BRANCH   1   2
ATOM      2  N   GLU A   1     -51.971   7.632 180.654  0.00  0.00    -0.239 NA
ATOM      3  H   GLU A   1     -52.441   6.967 181.300  0.00  0.00    +0.142 HD
ENDBRANCH   1   2
BRANCH   1   4
ATOM      4  C   GLU A   1     -50.819   5.945 179.267  0.00  0.00    +0.224 C 
ATOM      5  O   GLU A   1     -51.333   4.950 179.791  0.00  0.00    -0.287 OA
ENDBRANCH   1   4
BRANCH   1   6
ATOM      6  CB  GLU A   1     -49.602   7.097 181.100  0.00  0.00    +0.037 C 
BRANCH   6   7
ATOM      7  CG  GLU A   1     -48.301   6.524 180.522  0.00  0.00    +0.116 C 
BRANCH   7   8
ATOM      8  CD  GLU A   1     -47.253   6.195 181.576  0.00  0.00    +0.365 C 
ATOM      9  OE2 GLU A   1     -47.463   6.509 182.772  0.00  0.00    -0.246 OA
ATOM     10  OE1 GLU A   1     -46.207   5.614 181.205  0.00  0.00    -0.246 OA
ENDBRANCH   7   8
ENDBRANCH   6   7
ENDBRANCH   1   6
TORSDOF 5
REMARK  Name = ../refined-set-2016/3wmc/3wmc_pocket.pdb
REMARK  140 active torsions:
REMARK  status: ('A' for Active; 'I' for Inactive)
REMARK    1  A    between atoms: _1  and  _3
REMARK    2  A    between atoms: _3  and  _4
REMARK    3  A    between atoms: _3  and  _6
REMARK    4  A    between atoms: _6  and  _7
REMARK    5  A    between atoms: _10  and  _12
REMARK    6  A    between atoms: _12  and  _13
REMARK    7  A    between atoms: _12  and  _15
REMARK    8  A    between atoms: _15  and  _16
REMARK    9  A    between atoms: _16  and  _17
REMARK   10  A    between atoms: _17  and  _18
REMARK   11  A    between atoms: _27  and  _29
REMARK   12  A    between atoms: _29  and  _30
REMARK   13  A    between atoms: _29  and  _32
REMARK   14  A    between atoms: _32  and  _33
REMARK   15  A    between atoms: _38  and  _40
REMARK   16  A    between atoms: _40  and  _41
REMARK   17  A    between atoms: _40  and  _43
REMARK   18  A    between atoms: _43  and  _44
REMARK   19  A    between atoms: _47  and  _49
REMARK   20  A    between atoms: _49  and  _50
REMARK   21  A    between atoms: _49  and  _52
REMARK   22  A    between atoms: _52  and  _53
REMARK   23  A    between atoms: _53  and  _54
REMARK   24  A    between atoms: _57  and  _59
REMARK   25  A    between atoms: _59  and  _60
REMARK   26  A    between atoms: _59  and  _62
REMARK   27  A    between atoms: _62  and  _63
REMARK   28  A    between atoms: _66  and  _68
REMARK   29  A    between atoms: _68  and  _69
REMARK   30  A    between atoms: _68  and  _71
REMARK   31  A    between atoms: _71  and  _72
REMARK   32  A    between atoms: _77  and  _79
REMARK   33  A    between atoms: _79  and  _80
REMARK   34  A    between atoms: _79  and  _82
REMARK   35  A    between atoms: _82  and  _83
REMARK   36  A    between atoms: _93  and  _95
REMARK   37  A    between atoms: _95  and  _96
REMARK   38  A    between atoms: _95  and  _98
REMARK   39  A    between atoms: _101  and  _103
REMARK   40  A    between atoms: _103  and  _104
REMARK   41  A    between atoms: _103  and  _106
REMARK   42  A    between atoms: _106  and  _107
REMARK   43  A    between atoms: _107  and  _108
REMARK   44  A    between atoms: _111  and  _113
REMARK   45  A    between atoms: _113  and  _114
REMARK   46  A    between atoms: _113  and  _116
REMARK   47  A    between atoms: _116  and  _117
REMARK   48  A    between atoms: _122  and  _124
REMARK   49  A    between atoms: _124  and  _125
REMARK   50  A    between atoms: _127  and  _129
REMARK   51  A    between atoms: _129  and  _130
REMARK   52  A    between atoms: _132  and  _134
REMARK   53  A    between atoms: _134  and  _135
REMARK   54  A    between atoms: _134  and  _137
REMARK   55  A    between atoms: _137  and  _138
REMARK   56  A    between atoms: _141  and  _143
REMARK   57  A    between atoms: _143  and  _144
REMARK   58  A    between atoms: _143  and  _146
REMARK   59  A    between atoms: _146  and  _147
REMARK   60  A    between atoms: _147  and  _148
REMARK   61  A    between atoms: _151  and  _153
REMARK   62  A    between atoms: _153  and  _154
REMARK   63  A    between atoms: _153  and  _156
REMARK   64  A    between atoms: _156  and  _157
REMARK   65  A    between atoms: _160  and  _162
REMARK   66  A    between atoms: _162  and  _163
REMARK   67  A    between atoms: _162  and  _165
REMARK   68  A    between atoms: _165  and  _166
REMARK   69  A    between atoms: _176  and  _178
REMARK   70  A    between atoms: _178  and  _179
REMARK   71  A    between atoms: _178  and  _181
REMARK   72  A    between atoms: _181  and  _182
REMARK   73  A    between atoms: _185  and  _187
REMARK   74  A    between atoms: _187  and  _188
REMARK   75  A    between atoms: _187  and  _190
REMARK   76  A    between atoms: _190  and  _191
REMARK   77  A    between atoms: _191  and  _192
REMARK   78  A    between atoms: _197  and  _199
REMARK   79  A    between atoms: _199  and  _200
REMARK   80  A    between atoms: _199  and  _202
REMARK   81  A    between atoms: _205  and  _207
REMARK   82  A    between atoms: _207  and  _208
REMARK   83  A    between atoms: _207  and  _210
REMARK   84  A    between atoms: _210  and  _211
REMARK   85  A    between atoms: _221  and  _223
REMARK   86  A    between atoms: _223  and  _224
REMARK   87  A    between atoms: _223  and  _226
REMARK   88  A    between atoms: _226  and  _227
REMARK   89  A    between atoms: _230  and  _232
REMARK   90  A    between atoms: _232  and  _233
REMARK   91  A    between atoms: _232  and  _235
REMARK   92  A    between atoms: _235  and  _236
REMARK   93  A    between atoms: _239  and  _241
REMARK   94  A    between atoms: _241  and  _242
REMARK   95  A    between atoms: _241  and  _244
REMARK   96  A    between atoms: _244  and  _245
REMARK   97  A    between atoms: _247  and  _249
REMARK   98  A    between atoms: _249  and  _250
REMARK   99  A    between atoms: _249  and  _252
REMARK  100  A    between atoms: _252  and  _253
REMARK  101  A    between atoms: _258  and  _259
REMARK  102  A    between atoms: _261  and  _263
REMARK  103  A    between atoms: _263  and  _264
REMARK  104  A    between atoms: _263  and  _266
REMARK  105  A    between atoms: _266  and  _267
REMARK  106  A    between atoms: _272  and  _273
REMARK  107  A    between atoms: _275  and  _277
REMARK  108  A    between atoms: _277  and  _278
REMARK  109  A    between atoms: _277  and  _280
REMARK  110  A    between atoms: _280  and  _281
REMARK  111  A    between atoms: _284  and  _286
REMARK  112  A    between atoms: _286  and  _287
REMARK  113  A    between atoms: _286  and  _289
REMARK  114  A    between atoms: _289  and  _290
REMARK  115  A    between atoms: _300  and  _302
REMARK  116  A    between atoms: _302  and  _303
REMARK  117  A    between atoms: _302  and  _305
REMARK  118  A    between atoms: _305  and  _306
REMARK  119  A    between atoms: _311  and  _313
REMARK  120  A    between atoms: _313  and  _314
REMARK  121  A    between atoms: _313  and  _316
REMARK  122  A    between atoms: _316  and  _317
REMARK  123  A    between atoms: _327  and  _329
REMARK  124  A    between atoms: _329  and  _330
REMARK  125  A    between atoms: _329  and  _332
REMARK  126  A    between atoms: _334  and  _336
REMARK  127  A    between atoms: _336  and  _337
REMARK  128  A    between atoms: _336  and  _339
REMARK  129  A    between atoms: _339  and  _340
REMARK  130  A    between atoms: _342  and  _344
REMARK  131  A    between atoms: _344  and  _345
REMARK  132  A    between atoms: _348  and  _350
REMARK  133  A    between atoms: _350  and  _351
REMARK  134  A    between atoms: _350  and  _353
REMARK  135  A    between atoms: _353  and  _354
REMARK  136  A    between atoms: _364  and  _366
REMARK  137  A    between atoms: _366  and  _367
REMARK  138  A    between atoms: _366  and  _369
REMARK  139  A    between atoms: _369  and  _370
REMARK  140  A    between atoms: _370  and  _371
REMARK                            x       y       z     vdW  Elec       q    Type
REMARK                         _______ _______ _______ _____ _____    ______ ____
ROOT
ATOM      1  CA  ASP A   1     -46.597   3.383 178.070  0.00  0.00    +0.144 C 
ENDROOT
BRANCH   1   2
ATOM      2  N   ASP A   1     -48.033   3.616 178.070  0.00  0.00    -0.239 NA
ATOM      3  H   ASP A   1     -48.627   3.122 178.767  0.00  0.00    +0.142 HD
ENDBRANCH   1   2
BRANCH   1   4
ATOM      4  C   ASP A   1     -46.173   2.581 176.845  0.00  0.00    +0.225 C 
ATOM      5  O   ASP A   1     -46.732   1.519 176.566  0.00  0.00    -0.287 OA
ENDBRANCH   1   4
BRANCH   1   6
ATOM      6  CB  ASP A   1     -46.206   2.636 179.337  0.00  0.00    +0.139 C 
BRANCH   6   7
ATOM      7  CG  ASP A   1     -44.765   2.855 179.711  0.00  0.00    +0.367 C 
ATOM      8  OD2 ASP A   1     -44.429   2.653 180.894  0.00  0.00    -0.246 OA
ATOM      9  OD1 ASP A   1     -43.964   3.233 178.826  0.00  0.00    -0.246 OA
ENDBRANCH   6   7
ENDBRANCH   1   6
TORSDOF 4
REMARK  Name = ../refined-set-2016/3wmc/3wmc_pocket.pdb
REMARK  140 active torsions:
REMARK  status: ('A' for Active; 'I' for Inactive)
REMARK    1  A    between atoms: _1  and  _3
REMARK    2  A    between atoms: _3  and  _4
REMARK    3  A    between atoms: _3  and  _6
REMARK    4  A    between atoms: _6  and  _7
REMARK    5  A    between atoms: _10  and  _12
REMARK    6  A    between atoms: _12  and  _13
REMARK    7  A    between atoms: _12  and  _15
REMARK    8  A    between atoms: _15  and  _16
REMARK    9  A    between atoms: _16  and  _17
REMARK   10  A    between atoms: _17  and  _18
REMARK   11  A    between atoms: _27  and  _29
REMARK   12  A    between atoms: _29  and  _30
REMARK   13  A    between atoms: _29  and  _32
REMARK   14  A    between atoms: _32  and  _33
REMARK   15  A    between atoms: _38  and  _40
REMARK   16  A    between atoms: _40  and  _41
REMARK   17  A    between atoms: _40  and  _43
REMARK   18  A    between atoms: _43  and  _44
REMARK   19  A    between atoms: _47  and  _49
REMARK   20  A    between atoms: _49  and  _50
REMARK   21  A    between atoms: _49  and  _52
REMARK   22  A    between atoms: _52  and  _53
REMARK   23  A    between atoms: _53  and  _54
REMARK   24  A    between atoms: _57  and  _59
REMARK   25  A    between atoms: _59  and  _60
REMARK   26  A    between atoms: _59  and  _62
REMARK   27  A    between atoms: _62  and  _63
REMARK   28  A    between atoms: _66  and  _68
REMARK   29  A    between atoms: _68  and  _69
REMARK   30  A    between atoms: _68  and  _71
REMARK   31  A    between atoms: _71  and  _72
REMARK   32  A    between atoms: _77  and  _79
REMARK   33  A    between atoms: _79  and  _80
REMARK   34  A    between atoms: _79  and  _82
REMARK   35  A    between atoms: _82  and  _83
REMARK   36  A    between atoms: _93  and  _95
REMARK   37  A    between atoms: _95  and  _96
REMARK   38  A    between atoms: _95  and  _98
REMARK   39  A    between atoms: _101  and  _103
REMARK   40  A    between atoms: _103  and  _104
REMARK   41  A    between atoms: _103  and  _106
REMARK   42  A    between atoms: _106  and  _107
REMARK   43  A    between atoms: _107  and  _108
REMARK   44  A    between atoms: _111  and  _113
REMARK   45  A    between atoms: _113  and  _114
REMARK   46  A    between atoms: _113  and  _116
REMARK   47  A    between atoms: _116  and  _117
REMARK   48  A    between atoms: _122  and  _124
REMARK   49  A    between atoms: _124  and  _125
REMARK   50  A    between atoms: _127  and  _129
REMARK   51  A    between atoms: _129  and  _130
REMARK   52  A    between atoms: _132  and  _134
REMARK   53  A    between atoms: _134  and  _135
REMARK   54  A    between atoms: _134  and  _137
REMARK   55  A    between atoms: _137  and  _138
REMARK   56  A    between atoms: _141  and  _143
REMARK   57  A    between atoms: _143  and  _144
REMARK   58  A    between atoms: _143  and  _146
REMARK   59  A    between atoms: _146  and  _147
REMARK   60  A    between atoms: _147  and  _148
REMARK   61  A    between atoms: _151  and  _153
REMARK   62  A    between atoms: _153  and  _154
REMARK   63  A    between atoms: _153  and  _156
REMARK   64  A    between atoms: _156  and  _157
REMARK   65  A    between atoms: _160  and  _162
REMARK   66  A    between atoms: _162  and  _163
REMARK   67  A    between atoms: _162  and  _165
REMARK   68  A    between atoms: _165  and  _166
REMARK   69  A    between atoms: _176  and  _178
REMARK   70  A    between atoms: _178  and  _179
REMARK   71  A    between atoms: _178  and  _181
REMARK   72  A    between atoms: _181  and  _182
REMARK   73  A    between atoms: _185  and  _187
REMARK   74  A    between atoms: _187  and  _188
REMARK   75  A    between atoms: _187  and  _190
REMARK   76  A    between atoms: _190  and  _191
REMARK   77  A    between atoms: _191  and  _192
REMARK   78  A    between atoms: _197  and  _199
REMARK   79  A    between atoms: _199  and  _200
REMARK   80  A    between atoms: _199  and  _202
REMARK   81  A    between atoms: _205  and  _207
REMARK   82  A    between atoms: _207  and  _208
REMARK   83  A    between atoms: _207  and  _210
REMARK   84  A    between atoms: _210  and  _211
REMARK   85  A    between atoms: _221  and  _223
REMARK   86  A    between atoms: _223  and  _224
REMARK   87  A    between atoms: _223  and  _226
REMARK   88  A    between atoms: _226  and  _227
REMARK   89  A    between atoms: _230  and  _232
REMARK   90  A    between atoms: _232  and  _233
REMARK   91  A    between atoms: _232  and  _235
REMARK   92  A    between atoms: _235  and  _236
REMARK   93  A    between atoms: _239  and  _241
REMARK   94  A    between atoms: _241  and  _242
REMARK   95  A    between atoms: _241  and  _244
REMARK   96  A    between atoms: _244  and  _245
REMARK   97  A    between atoms: _247  and  _249
REMARK   98  A    between atoms: _249  and  _250
REMARK   99  A    between atoms: _249  and  _252
REMARK  100  A    between atoms: _252  and  _253
REMARK  101  A    between atoms: _258  and  _259
REMARK  102  A    between atoms: _261  and  _263
REMARK  103  A    between atoms: _263  and  _264
REMARK  104  A    between atoms: _263  and  _266
REMARK  105  A    between atoms: _266  and  _267
REMARK  106  A    between atoms: _272  and  _273
REMARK  107  A    between atoms: _275  and  _277
REMARK  108  A    between atoms: _277  and  _278
REMARK  109  A    between atoms: _277  and  _280
REMARK  110  A    between atoms: _280  and  _281
REMARK  111  A    between atoms: _284  and  _286
REMARK  112  A    between atoms: _286  and  _287
REMARK  113  A    between atoms: _286  and  _289
REMARK  114  A    between atoms: _289  and  _290
REMARK  115  A    between atoms: _300  and  _302
REMARK  116  A    between atoms: _302  and  _303
REMARK  117  A    between atoms: _302  and  _305
REMARK  118  A    between atoms: _305  and  _306
REMARK  119  A    between atoms: _311  and  _313
REMARK  120  A    between atoms: _313  and  _314
REMARK  121  A    between atoms: _313  and  _316
REMARK  122  A    between atoms: _316  and  _317
REMARK  123  A    between atoms: _327  and  _329
REMARK  124  A    between atoms: _329  and  _330
REMARK  125  A    between atoms: _329  and  _332
REMARK  126  A    between atoms: _334  and  _336
REMARK  127  A    between atoms: _336  and  _337
REMARK  128  A    between atoms: _336  and  _339
REMARK  129  A    between atoms: _339  and  _340
REMARK  130  A    between atoms: _342  and  _344
REMARK  131  A    between atoms: _344  and  _345
REMARK  132  A    between atoms: _348  and  _350
REMARK  133  A    between atoms: _350  and  _351
REMARK  134  A    between atoms: _350  and  _353
REMARK  135  A    between atoms: _353  and  _354
REMARK  136  A    between atoms: _364  and  _366
REMARK  137  A    between atoms: _366  and  _367
REMARK  138  A    between atoms: _366  and  _369
REMARK  139  A    between atoms: _369  and  _370
REMARK  140  A    between atoms: _370  and  _371
REMARK                            x       y       z     vdW  Elec       q    Type
REMARK                         _______ _______ _______ _____ _____    ______ ____
ROOT
ATOM      1  CB  HIS A   1     -44.160  -0.809 180.054  0.00  0.00    +0.072 C 
ENDROOT
BRANCH   1   2
ATOM      2  CG  HIS A   1     -43.017  -0.581 180.990  0.00  0.00    +0.082 A 
ATOM      3  ND1 HIS A   1     -43.008  -1.051 182.286  0.00  0.00    -0.227 NA
ATOM      4  CE1 HIS A   1     -41.871  -0.720 182.868  0.00  0.00    +0.199 A 
ATOM      5  NE2 HIS A   1     -41.136  -0.053 181.994  0.00  0.00    -0.221 NA
ATOM      6  CD2 HIS A   1     -41.825   0.039 180.812  0.00  0.00    +0.115 A 
ENDBRANCH   1   2
BRANCH   1   7
ATOM      7  CA  HIS A   1     -44.024  -2.093 179.231  0.00  0.00    +0.139 C 
BRANCH   7   8
ATOM      8  N   HIS A   1     -42.902  -1.995 178.298  0.00  0.00    -0.239 NA
ATOM      9  H   HIS A   1     -42.074  -2.609 178.435  0.00  0.00    +0.142 HD
ENDBRANCH   7   8
BRANCH   7  10
ATOM     10  C   HIS A   1     -45.338  -2.440 178.540  0.00  0.00    +0.224 C 
ATOM     11  O   HIS A   1     -46.387  -1.865 178.838  0.00  0.00    -0.287 OA
ENDBRANCH   7  10
ENDBRANCH   1   7
TORSDOF 4
REMARK  Name = ../refined-set-2016/3wmc/3wmc_pocket.pdb
REMARK  140 active torsions:
REMARK  status: ('A' for Active; 'I' for Inactive)
REMARK    1  A    between atoms: _1  and  _3
REMARK    2  A    between atoms: _3  and  _4
REMARK    3  A    between atoms: _3  and  _6
REMARK    4  A    between atoms: _6  and  _7
REMARK    5  A    between atoms: _10  and  _12
REMARK    6  A    between atoms: _12  and  _13
REMARK    7  A    between atoms: _12  and  _15
REMARK    8  A    between atoms: _15  and  _16
REMARK    9  A    between atoms: _16  and  _17
REMARK   10  A    between atoms: _17  and  _18
REMARK   11  A    between atoms: _27  and  _29
REMARK   12  A    between atoms: _29  and  _30
REMARK   13  A    between atoms: _29  and  _32
REMARK   14  A    between atoms: _32  and  _33
REMARK   15  A    between atoms: _38  and  _40
REMARK   16  A    between atoms: _40  and  _41
REMARK   17  A    between atoms: _40  and  _43
REMARK   18  A    between atoms: _43  and  _44
REMARK   19  A    between atoms: _47  and  _49
REMARK   20  A    between atoms: _49  and  _50
REMARK   21  A    between atoms: _49  and  _52
REMARK   22  A    between atoms: _52  and  _53
REMARK   23  A    between atoms: _53  and  _54
REMARK   24  A    between atoms: _57  and  _59
REMARK   25  A    between atoms: _59  and  _60
REMARK   26  A    between atoms: _59  and  _62
REMARK   27  A    between atoms: _62  and  _63
REMARK   28  A    between atoms: _66  and  _68
REMARK   29  A    between atoms: _68  and  _69
REMARK   30  A    between atoms: _68  and  _71
REMARK   31  A    between atoms: _71  and  _72
REMARK   32  A    between atoms: _77  and  _79
REMARK   33  A    between atoms: _79  and  _80
REMARK   34  A    between atoms: _79  and  _82
REMARK   35  A    between atoms: _82  and  _83
REMARK   36  A    between atoms: _93  and  _95
REMARK   37  A    between atoms: _95  and  _96
REMARK   38  A    between atoms: _95  and  _98
REMARK   39  A    between atoms: _101  and  _103
REMARK   40  A    between atoms: _103  and  _104
REMARK   41  A    between atoms: _103  and  _106
REMARK   42  A    between atoms: _106  and  _107
REMARK   43  A    between atoms: _107  and  _108
REMARK   44  A    between atoms: _111  and  _113
REMARK   45  A    between atoms: _113  and  _114
REMARK   46  A    between atoms: _113  and  _116
REMARK   47  A    between atoms: _116  and  _117
REMARK   48  A    between atoms: _122  and  _124
REMARK   49  A    between atoms: _124  and  _125
REMARK   50  A    between atoms: _127  and  _129
REMARK   51  A    between atoms: _129  and  _130
REMARK   52  A    between atoms: _132  and  _134
REMARK   53  A    between atoms: _134  and  _135
REMARK   54  A    between atoms: _134  and  _137
REMARK   55  A    between atoms: _137  and  _138
REMARK   56  A    between atoms: _141  and  _143
REMARK   57  A    between atoms: _143  and  _144
REMARK   58  A    between atoms: _143  and  _146
REMARK   59  A    between atoms: _146  and  _147
REMARK   60  A    between atoms: _147  and  _148
REMARK   61  A    between atoms: _151  and  _153
REMARK   62  A    between atoms: _153  and  _154
REMARK   63  A    between atoms: _153  and  _156
REMARK   64  A    between atoms: _156  and  _157
REMARK   65  A    between atoms: _160  and  _162
REMARK   66  A    between atoms: _162  and  _163
REMARK   67  A    between atoms: _162  and  _165
REMARK   68  A    between atoms: _165  and  _166
REMARK   69  A    between atoms: _176  and  _178
REMARK   70  A    between atoms: _178  and  _179
REMARK   71  A    between atoms: _178  and  _181
REMARK   72  A    between atoms: _181  and  _182
REMARK   73  A    between atoms: _185  and  _187
REMARK   74  A    between atoms: _187  and  _188
REMARK   75  A    between atoms: _187  and  _190
REMARK   76  A    between atoms: _190  and  _191
REMARK   77  A    between atoms: _191  and  _192
REMARK   78  A    between atoms: _197  and  _199
REMARK   79  A    between atoms: _199  and  _200
REMARK   80  A    between atoms: _199  and  _202
REMARK   81  A    between atoms: _205  and  _207
REMARK   82  A    between atoms: _207  and  _208
REMARK   83  A    between atoms: _207  and  _210
REMARK   84  A    between atoms: _210  and  _211
REMARK   85  A    between atoms: _221  and  _223
REMARK   86  A    between atoms: _223  and  _224
REMARK   87  A    between atoms: _223  and  _226
REMARK   88  A    between atoms: _226  and  _227
REMARK   89  A    between atoms: _230  and  _232
REMARK   90  A    between atoms: _232  and  _233
REMARK   91  A    between atoms: _232  and  _235
REMARK   92  A    between atoms: _235  and  _236
REMARK   93  A    between atoms: _239  and  _241
REMARK   94  A    between atoms: _241  and  _242
REMARK   95  A    between atoms: _241  and  _244
REMARK   96  A    between atoms: _244  and  _245
REMARK   97  A    between atoms: _247  and  _249
REMARK   98  A    between atoms: _249  and  _250
REMARK   99  A    between atoms: _249  and  _252
REMARK  100  A    between atoms: _252  and  _253
REMARK  101  A    between atoms: _258  and  _259
REMARK  102  A    between atoms: _261  and  _263
REMARK  103  A    between atoms: _263  and  _264
REMARK  104  A    between atoms: _263  and  _266
REMARK  105  A    between atoms: _266  and  _267
REMARK  106  A    between atoms: _272  and  _273
REMARK  107  A    between atoms: _275  and  _277
REMARK  108  A    between atoms: _277  and  _278
REMARK  109  A    between atoms: _277  and  _280
REMARK  110  A    between atoms: _280  and  _281
REMARK  111  A    between atoms: _284  and  _286
REMARK  112  A    between atoms: _286  and  _287
REMARK  113  A    between atoms: _286  and  _289
REMARK  114  A    between atoms: _289  and  _290
REMARK  115  A    between atoms: _300  and  _302
REMARK  116  A    between atoms: _302  and  _303
REMARK  117  A    between atoms: _302  and  _305
REMARK  118  A    between atoms: _305  and  _306
REMARK  119  A    between atoms: _311  and  _313
REMARK  120  A    between atoms: _313  and  _314
REMARK  121  A    between atoms: _313  and  _316
REMARK  122  A    between atoms: _316  and  _317
REMARK  123  A    between atoms: _327  and  _329
REMARK  124  A    between atoms: _329  and  _330
REMARK  125  A    between atoms: _329  and  _332
REMARK  126  A    between atoms: _334  and  _336
REMARK  127  A    between atoms: _336  and  _337
REMARK  128  A    between atoms: _336  and  _339
REMARK  129  A    between atoms: _339  and  _340
REMARK  130  A    between atoms: _342  and  _344
REMARK  131  A    between atoms: _344  and  _345
REMARK  132  A    between atoms: _348  and  _350
REMARK  133  A    between atoms: _350  and  _351
REMARK  134  A    between atoms: _350  and  _353
REMARK  135  A    between atoms: _353  and  _354
REMARK  136  A    between atoms: _364  and  _366
REMARK  137  A    between atoms: _366  and  _367
REMARK  138  A    between atoms: _366  and  _369
REMARK  139  A    between atoms: _369  and  _370
REMARK  140  A    between atoms: _370  and  _371
REMARK                            x       y       z     vdW  Elec       q    Type
REMARK                         _______ _______ _______ _____ _____    ______ ____
ROOT
ATOM      1  CG  TRP A   1     -37.217 -12.299 184.407  0.00  0.00    -0.002 A 
ATOM      2  CD2 TRP A   1     -36.741 -11.239 185.250  0.00  0.00    +0.013 A 
ATOM      3  CE2 TRP A   1     -36.706 -11.736 186.568  0.00  0.00    +0.056 A 
ATOM      4  CZ2 TRP A   1     -36.283 -10.961 187.649  0.00  0.00    +0.017 A 
ATOM      5  CH2 TRP A   1     -35.891  -9.673 187.389  0.00  0.00    +0.001 A 
ATOM      6  CZ3 TRP A   1     -35.915  -9.149 186.090  0.00  0.00    +0.000 A 
ATOM      7  NE1 TRP A   1     -37.147 -13.034 186.530  0.00  0.00    -0.352 N 
ATOM      8  HE1 TRP A   1     -37.234 -13.667 187.350  0.00  0.00    +0.166 HD
ATOM      9  CE3 TRP A   1     -36.341  -9.918 185.016  0.00  0.00    +0.001 A 
ATOM     10  CD1 TRP A   1     -37.456 -13.362 185.230  0.00  0.00    +0.068 A 
ENDROOT
BRANCH   1  11
ATOM     11  CB  TRP A   1     -37.452 -12.237 182.929  0.00  0.00    +0.053 C 
BRANCH  11  12
ATOM     12  CA  TRP A   1     -36.223 -12.480 182.049  0.00  0.00    +0.137 C 
BRANCH  12  13
ATOM     13  N   TRP A   1     -35.750 -13.856 182.160  0.00  0.00    -0.239 NA
ATOM     14  H   TRP A   1     -36.178 -14.490 182.865  0.00  0.00    +0.142 HD
ENDBRANCH  12  13
BRANCH  12  15
ATOM     15  C   TRP A   1     -35.158 -11.419 182.294  0.00  0.00    +0.224 C 
ATOM     16  O   TRP A   1     -35.208 -10.348 181.683  0.00  0.00    -0.287 OA
ENDBRANCH  12  15
ENDBRANCH  11  12
ENDBRANCH   1  11
TORSDOF 4
REMARK  Name = ../refined-set-2016/3wmc/3wmc_pocket.pdb
REMARK  140 active torsions:
REMARK  status: ('A' for Active; 'I' for Inactive)
REMARK    1  A    between atoms: _1  and  _3
REMARK    2  A    between atoms: _3  and  _4
REMARK    3  A    between atoms: _3  and  _6
REMARK    4  A    between atoms: _6  and  _7
REMARK    5  A    between atoms: _10  and  _12
REMARK    6  A    between atoms: _12  and  _13
REMARK    7  A    between atoms: _12  and  _15
REMARK    8  A    between atoms: _15  and  _16
REMARK    9  A    between atoms: _16  and  _17
REMARK   10  A    between atoms: _17  and  _18
REMARK   11  A    between atoms: _27  and  _29
REMARK   12  A    between atoms: _29  and  _30
REMARK   13  A    between atoms: _29  and  _32
REMARK   14  A    between atoms: _32  and  _33
REMARK   15  A    between atoms: _38  and  _40
REMARK   16  A    between atoms: _40  and  _41
REMARK   17  A    between atoms: _40  and  _43
REMARK   18  A    between atoms: _43  and  _44
REMARK   19  A    between atoms: _47  and  _49
REMARK   20  A    between atoms: _49  and  _50
REMARK   21  A    between atoms: _49  and  _52
REMARK   22  A    between atoms: _52  and  _53
REMARK   23  A    between atoms: _53  and  _54
REMARK   24  A    between atoms: _57  and  _59
REMARK   25  A    between atoms: _59  and  _60
REMARK   26  A    between atoms: _59  and  _62
REMARK   27  A    between atoms: _62  and  _63
REMARK   28  A    between atoms: _66  and  _68
REMARK   29  A    between atoms: _68  and  _69
REMARK   30  A    between atoms: _68  and  _71
REMARK   31  A    between atoms: _71  and  _72
REMARK   32  A    between atoms: _77  and  _79
REMARK   33  A    between atoms: _79  and  _80
REMARK   34  A    between atoms: _79  and  _82
REMARK   35  A    between atoms: _82  and  _83
REMARK   36  A    between atoms: _93  and  _95
REMARK   37  A    between atoms: _95  and  _96
REMARK   38  A    between atoms: _95  and  _98
REMARK   39  A    between atoms: _101  and  _103
REMARK   40  A    between atoms: _103  and  _104
REMARK   41  A    between atoms: _103  and  _106
REMARK   42  A    between atoms: _106  and  _107
REMARK   43  A    between atoms: _107  and  _108
REMARK   44  A    between atoms: _111  and  _113
REMARK   45  A    between atoms: _113  and  _114
REMARK   46  A    between atoms: _113  and  _116
REMARK   47  A    between atoms: _116  and  _117
REMARK   48  A    between atoms: _122  and  _124
REMARK   49  A    between atoms: _124  and  _125
REMARK   50  A    between atoms: _127  and  _129
REMARK   51  A    between atoms: _129  and  _130
REMARK   52  A    between atoms: _132  and  _134
REMARK   53  A    between atoms: _134  and  _135
REMARK   54  A    between atoms: _134  and  _137
REMARK   55  A    between atoms: _137  and  _138
REMARK   56  A    between atoms: _141  and  _143
REMARK   57  A    between atoms: _143  and  _144
REMARK   58  A    between atoms: _143  and  _146
REMARK   59  A    between atoms: _146  and  _147
REMARK   60  A    between atoms: _147  and  _148
REMARK   61  A    between atoms: _151  and  _153
REMARK   62  A    between atoms: _153  and  _154
REMARK   63  A    between atoms: _153  and  _156
REMARK   64  A    between atoms: _156  and  _157
REMARK   65  A    between atoms: _160  and  _162
REMARK   66  A    between atoms: _162  and  _163
REMARK   67  A    between atoms: _162  and  _165
REMARK   68  A    between atoms: _165  and  _166
REMARK   69  A    between atoms: _176  and  _178
REMARK   70  A    between atoms: _178  and  _179
REMARK   71  A    between atoms: _178  and  _181
REMARK   72  A    between atoms: _181  and  _182
REMARK   73  A    between atoms: _185  and  _187
REMARK   74  A    between atoms: _187  and  _188
REMARK   75  A    between atoms: _187  and  _190
REMARK   76  A    between atoms: _190  and  _191
REMARK   77  A    between atoms: _191  and  _192
REMARK   78  A    between atoms: _197  and  _199
REMARK   79  A    between atoms: _199  and  _200
REMARK   80  A    between atoms: _199  and  _202
REMARK   81  A    between atoms: _205  and  _207
REMARK   82  A    between atoms: _207  and  _208
REMARK   83  A    between atoms: _207  and  _210
REMARK   84  A    between atoms: _210  and  _211
REMARK   85  A    between atoms: _221  and  _223
REMARK   86  A    between atoms: _223  and  _224
REMARK   87  A    between atoms: _223  and  _226
REMARK   88  A    between atoms: _226  and  _227
REMARK   89  A    between atoms: _230  and  _232
REMARK   90  A    between atoms: _232  and  _233
REMARK   91  A    between atoms: _232  and  _235
REMARK   92  A    between atoms: _235  and  _236
REMARK   93  A    between atoms: _239  and  _241
REMARK   94  A    between atoms: _241  and  _242
REMARK   95  A    between atoms: _241  and  _244
REMARK   96  A    between atoms: _244  and  _245
REMARK   97  A    between atoms: _247  and  _249
REMARK   98  A    between atoms: _249  and  _250
REMARK   99  A    between atoms: _249  and  _252
REMARK  100  A    between atoms: _252  and  _253
REMARK  101  A    between atoms: _258  and  _259
REMARK  102  A    between atoms: _261  and  _263
REMARK  103  A    between atoms: _263  and  _264
REMARK  104  A    between atoms: _263  and  _266
REMARK  105  A    between atoms: _266  and  _267
REMARK  106  A    between atoms: _272  and  _273
REMARK  107  A    between atoms: _275  and  _277
REMARK  108  A    between atoms: _277  and  _278
REMARK  109  A    between atoms: _277  and  _280
REMARK  110  A    between atoms: _280  and  _281
REMARK  111  A    between atoms: _284  and  _286
REMARK  112  A    between atoms: _286  and  _287
REMARK  113  A    between atoms: _286  and  _289
REMARK  114  A    between atoms: _289  and  _290
REMARK  115  A    between atoms: _300  and  _302
REMARK  116  A    between atoms: _302  and  _303
REMARK  117  A    between atoms: _302  and  _305
REMARK  118  A    between atoms: _305  and  _306
REMARK  119  A    between atoms: _311  and  _313
REMARK  120  A    between atoms: _313  and  _314
REMARK  121  A    between atoms: _313  and  _316
REMARK  122  A    between atoms: _316  and  _317
REMARK  123  A    between atoms: _327  and  _329
REMARK  124  A    between atoms: _329  and  _330
REMARK  125  A    between atoms: _329  and  _332
REMARK  126  A    between atoms: _334  and  _336
REMARK  127  A    between atoms: _336  and  _337
REMARK  128  A    between atoms: _336  and  _339
REMARK  129  A    between atoms: _339  and  _340
REMARK  130  A    between atoms: _342  and  _344
REMARK  131  A    between atoms: _344  and  _345
REMARK  132  A    between atoms: _348  and  _350
REMARK  133  A    between atoms: _350  and  _351
REMARK  134  A    between atoms: _350  and  _353
REMARK  135  A    between atoms: _353  and  _354
REMARK  136  A    between atoms: _364  and  _366
REMARK  137  A    between atoms: _366  and  _367
REMARK  138  A    between atoms: _366  and  _369
REMARK  139  A    between atoms: _369  and  _370
REMARK  140  A    between atoms: _370  and  _371
REMARK                            x       y       z     vdW  Elec       q    Type
REMARK                         _______ _______ _______ _____ _____    ______ ____
ROOT
ATOM      1  C   VAL A   1     -36.771  -5.625 185.109  0.00  0.00    +0.238 C 
ATOM      2  O   VAL A   1     -36.297  -5.843 186.226  0.00  0.00    -0.274 OA
ATOM      3  N   GLU A   2     -37.976  -6.053 184.744  0.00  0.00    -0.298 N 
ATOM      4  H   GLU A   2     -38.340  -5.802 183.803  0.00  0.00    +0.150 HD
ENDROOT
BRANCH   1   5
ATOM      5  CA  VAL A   1     -35.981  -4.833 184.062  0.00  0.00    +0.145 C 
BRANCH   5   6
ATOM      6  CB  VAL A   1     -36.310  -3.330 184.187  0.00  0.00    +0.025 C 
ATOM      7  CG2 VAL A   1     -36.096  -2.839 185.602  0.00  0.00    +0.002 C 
ATOM      8  CG1 VAL A   1     -35.460  -2.526 183.220  0.00  0.00    +0.002 C 
ENDBRANCH   5   6
BRANCH   5   9
ATOM      9  N   VAL A   1     -36.255  -5.294 182.705  0.00  0.00    -0.238 NA
ATOM     10  H   VAL A   1     -36.887  -4.722 182.109  0.00  0.00    +0.142 HD
ENDBRANCH   5   9
ENDBRANCH   1   5
BRANCH   3  11
ATOM     11  CA  GLU A   2     -38.800  -6.867 185.632  0.00  0.00    +0.137 C 
BRANCH  11  12
ATOM     12  C   GLU A   2     -39.749  -7.716 184.798  0.00  0.00    +0.227 C 
ATOM     13  O   GLU A   2     -40.189  -7.296 183.726  0.00  0.00    -0.286 OA
ENDBRANCH  11  12
BRANCH  11  14
ATOM     14  CB  GLU A   2     -39.581  -5.991 186.629  0.00  0.00    +0.039 C 
BRANCH  14  15
ATOM     15  CG  GLU A   2     -40.804  -5.289 186.044  0.00  0.00    +0.116 C 
BRANCH  15  16
ATOM     16  CD  GLU A   2     -41.506  -4.382 187.045  0.00  0.00    +0.365 C 
ATOM     17  OE2 GLU A   2     -40.826  -3.558 187.685  0.00  0.00    -0.246 OA
ATOM     18  OE1 GLU A   2     -42.747  -4.479 187.184  0.00  0.00    -0.246 OA
ENDBRANCH  15  16
ENDBRANCH  14  15
ENDBRANCH  11  14
ENDBRANCH   3  11
TORSDOF 8
REMARK  Name = ../refined-set-2016/3wmc/3wmc_pocket.pdb
REMARK  140 active torsions:
REMARK  status: ('A' for Active; 'I' for Inactive)
REMARK    1  A    between atoms: _1  and  _3
REMARK    2  A    between atoms: _3  and  _4
REMARK    3  A    between atoms: _3  and  _6
REMARK    4  A    between atoms: _6  and  _7
REMARK    5  A    between atoms: _10  and  _12
REMARK    6  A    between atoms: _12  and  _13
REMARK    7  A    between atoms: _12  and  _15
REMARK    8  A    between atoms: _15  and  _16
REMARK    9  A    between atoms: _16  and  _17
REMARK   10  A    between atoms: _17  and  _18
REMARK   11  A    between atoms: _27  and  _29
REMARK   12  A    between atoms: _29  and  _30
REMARK   13  A    between atoms: _29  and  _32
REMARK   14  A    between atoms: _32  and  _33
REMARK   15  A    between atoms: _38  and  _40
REMARK   16  A    between atoms: _40  and  _41
REMARK   17  A    between atoms: _40  and  _43
REMARK   18  A    between atoms: _43  and  _44
REMARK   19  A    between atoms: _47  and  _49
REMARK   20  A    between atoms: _49  and  _50
REMARK   21  A    between atoms: _49  and  _52
REMARK   22  A    between atoms: _52  and  _53
REMARK   23  A    between atoms: _53  and  _54
REMARK   24  A    between atoms: _57  and  _59
REMARK   25  A    between atoms: _59  and  _60
REMARK   26  A    between atoms: _59  and  _62
REMARK   27  A    between atoms: _62  and  _63
REMARK   28  A    between atoms: _66  and  _68
REMARK   29  A    between atoms: _68  and  _69
REMARK   30  A    between atoms: _68  and  _71
REMARK   31  A    between atoms: _71  and  _72
REMARK   32  A    between atoms: _77  and  _79
REMARK   33  A    between atoms: _79  and  _80
REMARK   34  A    between atoms: _79  and  _82
REMARK   35  A    between atoms: _82  and  _83
REMARK   36  A    between atoms: _93  and  _95
REMARK   37  A    between atoms: _95  and  _96
REMARK   38  A    between atoms: _95  and  _98
REMARK   39  A    between atoms: _101  and  _103
REMARK   40  A    between atoms: _103  and  _104
REMARK   41  A    between atoms: _103  and  _106
REMARK   42  A    between atoms: _106  and  _107
REMARK   43  A    between atoms: _107  and  _108
REMARK   44  A    between atoms: _111  and  _113
REMARK   45  A    between atoms: _113  and  _114
REMARK   46  A    between atoms: _113  and  _116
REMARK   47  A    between atoms: _116  and  _117
REMARK   48  A    between atoms: _122  and  _124
REMARK   49  A    between atoms: _124  and  _125
REMARK   50  A    between atoms: _127  and  _129
REMARK   51  A    between atoms: _129  and  _130
REMARK   52  A    between atoms: _132  and  _134
REMARK   53  A    between atoms: _134  and  _135
REMARK   54  A    between atoms: _134  and  _137
REMARK   55  A    between atoms: _137  and  _138
REMARK   56  A    between atoms: _141  and  _143
REMARK   57  A    between atoms: _143  and  _144
REMARK   58  A    between atoms: _143  and  _146
REMARK   59  A    between atoms: _146  and  _147
REMARK   60  A    between atoms: _147  and  _148
REMARK   61  A    between atoms: _151  and  _153
REMARK   62  A    between atoms: _153  and  _154
REMARK   63  A    between atoms: _153  and  _156
REMARK   64  A    between atoms: _156  and  _157
REMARK   65  A    between atoms: _160  and  _162
REMARK   66  A    between atoms: _162  and  _163
REMARK   67  A    between atoms: _162  and  _165
REMARK   68  A    between atoms: _165  and  _166
REMARK   69  A    between atoms: _176  and  _178
REMARK   70  A    between atoms: _178  and  _179
REMARK   71  A    between atoms: _178  and  _181
REMARK   72  A    between atoms: _181  and  _182
REMARK   73  A    between atoms: _185  and  _187
REMARK   74  A    between atoms: _187  and  _188
REMARK   75  A    between atoms: _187  and  _190
REMARK   76  A    between atoms: _190  and  _191
REMARK   77  A    between atoms: _191  and  _192
REMARK   78  A    between atoms: _197  and  _199
REMARK   79  A    between atoms: _199  and  _200
REMARK   80  A    between atoms: _199  and  _202
REMARK   81  A    between atoms: _205  and  _207
REMARK   82  A    between atoms: _207  and  _208
REMARK   83  A    between atoms: _207  and  _210
REMARK   84  A    between atoms: _210  and  _211
REMARK   85  A    between atoms: _221  and  _223
REMARK   86  A    between atoms: _223  and  _224
REMARK   87  A    between atoms: _223  and  _226
REMARK   88  A    between atoms: _226  and  _227
REMARK   89  A    between atoms: _230  and  _232
REMARK   90  A    between atoms: _232  and  _233
REMARK   91  A    between atoms: _232  and  _235
REMARK   92  A    between atoms: _235  and  _236
REMARK   93  A    between atoms: _239  and  _241
REMARK   94  A    between atoms: _241  and  _242
REMARK   95  A    between atoms: _241  and  _244
REMARK   96  A    between atoms: _244  and  _245
REMARK   97  A    between atoms: _247  and  _249
REMARK   98  A    between atoms: _249  and  _250
REMARK   99  A    between atoms: _249  and  _252
REMARK  100  A    between atoms: _252  and  _253
REMARK  101  A    between atoms: _258  and  _259
REMARK  102  A    between atoms: _261  and  _263
REMARK  103  A    between atoms: _263  and  _264
REMARK  104  A    between atoms: _263  and  _266
REMARK  105  A    between atoms: _266  and  _267
REMARK  106  A    between atoms: _272  and  _273
REMARK  107  A    between atoms: _275  and  _277
REMARK  108  A    between atoms: _277  and  _278
REMARK  109  A    between atoms: _277  and  _280
REMARK  110  A    between atoms: _280  and  _281
REMARK  111  A    between atoms: _284  and  _286
REMARK  112  A    between atoms: _286  and  _287
REMARK  113  A    between atoms: _286  and  _289
REMARK  114  A    between atoms: _289  and  _290
REMARK  115  A    between atoms: _300  and  _302
REMARK  116  A    between atoms: _302  and  _303
REMARK  117  A    between atoms: _302  and  _305
REMARK  118  A    between atoms: _305  and  _306
REMARK  119  A    between atoms: _311  and  _313
REMARK  120  A    between atoms: _313  and  _314
REMARK  121  A    between atoms: _313  and  _316
REMARK  122  A    between atoms: _316  and  _317
REMARK  123  A    between atoms: _327  and  _329
REMARK  124  A    between atoms: _329  and  _330
REMARK  125  A    between atoms: _329  and  _332
REMARK  126  A    between atoms: _334  and  _336
REMARK  127  A    between atoms: _336  and  _337
REMARK  128  A    between atoms: _336  and  _339
REMARK  129  A    between atoms: _339  and  _340
REMARK  130  A    between atoms: _342  and  _344
REMARK  131  A    between atoms: _344  and  _345
REMARK  132  A    between atoms: _348  and  _350
REMARK  133  A    between atoms: _350  and  _351
REMARK  134  A    between atoms: _350  and  _353
REMARK  135  A    between atoms: _353  and  _354
REMARK  136  A    between atoms: _364  and  _366
REMARK  137  A    between atoms: _366  and  _367
REMARK  138  A    between atoms: _366  and  _369
REMARK  139  A    between atoms: _369  and  _370
REMARK  140  A    between atoms: _370  and  _371
REMARK                            x       y       z     vdW  Elec       q    Type
REMARK                         _______ _______ _______ _____ _____    ______ ____
ROOT
ATOM      1  CB  HIS A   1     -48.306  10.471 180.148  0.00  0.00    +0.072 C 
ENDROOT
BRANCH   1   2
ATOM      2  CG  HIS A   1     -46.973  10.202 180.778  0.00  0.00    +0.082 A 
ATOM      3  CD2 HIS A   1     -46.421  10.668 181.924  0.00  0.00    +0.115 A 
ATOM      4  NE2 HIS A   1     -45.182  10.089 182.045  0.00  0.00    -0.221 NA
ATOM      5  CE1 HIS A   1     -44.975   9.295 181.005  0.00  0.00    +0.199 A 
ATOM      6  ND1 HIS A   1     -46.045   9.344 180.229  0.00  0.00    -0.227 NA
ENDBRANCH   1   2
BRANCH   1   7
ATOM      7  CA  HIS A   1     -48.241  10.805 178.653  0.00  0.00    +0.139 C 
BRANCH   7   8
ATOM      8  N   HIS A   1     -49.501  11.406 178.222  0.00  0.00    -0.239 NA
ATOM      9  H   HIS A   1     -50.401  10.993 178.541  0.00  0.00    +0.142 HD
ENDBRANCH   7   8
BRANCH   7  10
ATOM     10  C   HIS A   1     -47.993   9.554 177.817  0.00  0.00    +0.224 C 
ATOM     11  O   HIS A   1     -48.860   8.678 177.732  0.00  0.00    -0.287 OA
ENDBRANCH   7  10
ENDBRANCH   1   7
TORSDOF 4
REMARK  Name = ../refined-set-2016/3wmc/3wmc_pocket.pdb
REMARK  140 active torsions:
REMARK  status: ('A' for Active; 'I' for Inactive)
REMARK    1  A    between atoms: _1  and  _3
REMARK    2  A    between atoms: _3  and  _4
REMARK    3  A    between atoms: _3  and  _6
REMARK    4  A    between atoms: _6  and  _7
REMARK    5  A    between atoms: _10  and  _12
REMARK    6  A    between atoms: _12  and  _13
REMARK    7  A    between atoms: _12  and  _15
REMARK    8  A    between atoms: _15  and  _16
REMARK    9  A    between atoms: _16  and  _17
REMARK   10  A    between atoms: _17  and  _18
REMARK   11  A    between atoms: _27  and  _29
REMARK   12  A    between atoms: _29  and  _30
REMARK   13  A    between atoms: _29  and  _32
REMARK   14  A    between atoms: _32  and  _33
REMARK   15  A    between atoms: _38  and  _40
REMARK   16  A    between atoms: _40  and  _41
REMARK   17  A    between atoms: _40  and  _43
REMARK   18  A    between atoms: _43  and  _44
REMARK   19  A    between atoms: _47  and  _49
REMARK   20  A    between atoms: _49  and  _50
REMARK   21  A    between atoms: _49  and  _52
REMARK   22  A    between atoms: _52  and  _53
REMARK   23  A    between atoms: _53  and  _54
REMARK   24  A    between atoms: _57  and  _59
REMARK   25  A    between atoms: _59  and  _60
REMARK   26  A    between atoms: _59  and  _62
REMARK   27  A    between atoms: _62  and  _63
REMARK   28  A    between atoms: _66  and  _68
REMARK   29  A    between atoms: _68  and  _69
REMARK   30  A    between atoms: _68  and  _71
REMARK   31  A    between atoms: _71  and  _72
REMARK   32  A    between atoms: _77  and  _79
REMARK   33  A    between atoms: _79  and  _80
REMARK   34  A    between atoms: _79  and  _82
REMARK   35  A    between atoms: _82  and  _83
REMARK   36  A    between atoms: _93  and  _95
REMARK   37  A    between atoms: _95  and  _96
REMARK   38  A    between atoms: _95  and  _98
REMARK   39  A    between atoms: _101  and  _103
REMARK   40  A    between atoms: _103  and  _104
REMARK   41  A    between atoms: _103  and  _106
REMARK   42  A    between atoms: _106  and  _107
REMARK   43  A    between atoms: _107  and  _108
REMARK   44  A    between atoms: _111  and  _113
REMARK   45  A    between atoms: _113  and  _114
REMARK   46  A    between atoms: _113  and  _116
REMARK   47  A    between atoms: _116  and  _117
REMARK   48  A    between atoms: _122  and  _124
REMARK   49  A    between atoms: _124  and  _125
REMARK   50  A    between atoms: _127  and  _129
REMARK   51  A    between atoms: _129  and  _130
REMARK   52  A    between atoms: _132  and  _134
REMARK   53  A    between atoms: _134  and  _135
REMARK   54  A    between atoms: _134  and  _137
REMARK   55  A    between atoms: _137  and  _138
REMARK   56  A    between atoms: _141  and  _143
REMARK   57  A    between atoms: _143  and  _144
REMARK   58  A    between atoms: _143  and  _146
REMARK   59  A    between atoms: _146  and  _147
REMARK   60  A    between atoms: _147  and  _148
REMARK   61  A    between atoms: _151  and  _153
REMARK   62  A    between atoms: _153  and  _154
REMARK   63  A    between atoms: _153  and  _156
REMARK   64  A    between atoms: _156  and  _157
REMARK   65  A    between atoms: _160  and  _162
REMARK   66  A    between atoms: _162  and  _163
REMARK   67  A    between atoms: _162  and  _165
REMARK   68  A    between atoms: _165  and  _166
REMARK   69  A    between atoms: _176  and  _178
REMARK   70  A    between atoms: _178  and  _179
REMARK   71  A    between atoms: _178  and  _181
REMARK   72  A    between atoms: _181  and  _182
REMARK   73  A    between atoms: _185  and  _187
REMARK   74  A    between atoms: _187  and  _188
REMARK   75  A    between atoms: _187  and  _190
REMARK   76  A    between atoms: _190  and  _191
REMARK   77  A    between atoms: _191  and  _192
REMARK   78  A    between atoms: _197  and  _199
REMARK   79  A    between atoms: _199  and  _200
REMARK   80  A    between atoms: _199  and  _202
REMARK   81  A    between atoms: _205  and  _207
REMARK   82  A    between atoms: _207  and  _208
REMARK   83  A    between atoms: _207  and  _210
REMARK   84  A    between atoms: _210  and  _211
REMARK   85  A    between atoms: _221  and  _223
REMARK   86  A    between atoms: _223  and  _224
REMARK   87  A    between atoms: _223  and  _226
REMARK   88  A    between atoms: _226  and  _227
REMARK   89  A    between atoms: _230  and  _232
REMARK   90  A    between atoms: _232  and  _233
REMARK   91  A    between atoms: _232  and  _235
REMARK   92  A    between atoms: _235  and  _236
REMARK   93  A    between atoms: _239  and  _241
REMARK   94  A    between atoms: _241  and  _242
REMARK   95  A    between atoms: _241  and  _244
REMARK   96  A    between atoms: _244  and  _245
REMARK   97  A    between atoms: _247  and  _249
REMARK   98  A    between atoms: _249  and  _250
REMARK   99  A    between atoms: _249  and  _252
REMARK  100  A    between atoms: _252  and  _253
REMARK  101  A    between atoms: _258  and  _259
REMARK  102  A    between atoms: _261  and  _263
REMARK  103  A    between atoms: _263  and  _264
REMARK  104  A    between atoms: _263  and  _266
REMARK  105  A    between atoms: _266  and  _267
REMARK  106  A    between atoms: _272  and  _273
REMARK  107  A    between atoms: _275  and  _277
REMARK  108  A    between atoms: _277  and  _278
REMARK  109  A    between atoms: _277  and  _280
REMARK  110  A    between atoms: _280  and  _281
REMARK  111  A    between atoms: _284  and  _286
REMARK  112  A    between atoms: _286  and  _287
REMARK  113  A    between atoms: _286  and  _289
REMARK  114  A    between atoms: _289  and  _290
REMARK  115  A    between atoms: _300  and  _302
REMARK  116  A    between atoms: _302  and  _303
REMARK  117  A    between atoms: _302  and  _305
REMARK  118  A    between atoms: _305  and  _306
REMARK  119  A    between atoms: _311  and  _313
REMARK  120  A    between atoms: _313  and  _314
REMARK  121  A    between atoms: _313  and  _316
REMARK  122  A    between atoms: _316  and  _317
REMARK  123  A    between atoms: _327  and  _329
REMARK  124  A    between atoms: _329  and  _330
REMARK  125  A    between atoms: _329  and  _332
REMARK  126  A    between atoms: _334  and  _336
REMARK  127  A    between atoms: _336  and  _337
REMARK  128  A    between atoms: _336  and  _339
REMARK  129  A    between atoms: _339  and  _340
REMARK  130  A    between atoms: _342  and  _344
REMARK  131  A    between atoms: _344  and  _345
REMARK  132  A    between atoms: _348  and  _350
REMARK  133  A    between atoms: _350  and  _351
REMARK  134  A    between atoms: _350  and  _353
REMARK  135  A    between atoms: _353  and  _354
REMARK  136  A    between atoms: _364  and  _366
REMARK  137  A    between atoms: _366  and  _367
REMARK  138  A    between atoms: _366  and  _369
REMARK  139  A    between atoms: _369  and  _370
REMARK  140  A    between atoms: _370  and  _371
REMARK                            x       y       z     vdW  Elec       q    Type
REMARK                         _______ _______ _______ _____ _____    ______ ____
ROOT
ATOM      1  CA  ASP A   3     -39.286   4.274 180.015  0.00  0.00    +0.160 C 
ENDROOT
BRANCH   1   3
ATOM      2  C   GLY A   2     -39.924   5.518 178.071  0.00  0.00    +0.243 C 
ATOM      3  N   ASP A   3     -40.294   4.699 179.047  0.00  0.00    -0.296 N 
ATOM      4  H   ASP A   3     -41.277   4.368 179.121  0.00  0.00    +0.150 HD
ATOM      5  O   GLY A   2     -38.782   5.969 177.996  0.00  0.00    -0.273 OA
BRANCH   2   6
ATOM      6  CA  GLY A   2     -40.960   5.888 177.028  0.00  0.00    +0.176 C 
BRANCH   6   9
ATOM      7  C   GLY A   1     -42.814   6.766 178.319  0.00  0.00    +0.240 C 
ATOM      8  O   GLY A   1     -42.138   7.701 178.754  0.00  0.00    -0.274 OA
ATOM      9  N   GLY A   2     -42.329   5.842 177.499  0.00  0.00    -0.295 N 
ATOM     10  H   GLY A   2     -42.947   5.066 177.187  0.00  0.00    +0.150 HD
BRANCH   7  11
ATOM     11  CA  GLY A   1     -44.265   6.603 178.721  0.00  0.00    +0.169 C 
BRANCH  11  12
ATOM     12  N   GLY A   1     -45.167   7.533 178.070  0.00  0.00    -0.236 NA
ATOM     13  H   GLY A   1     -45.595   8.299 178.628  0.00  0.00    +0.142 HD
ENDBRANCH  11  12
ENDBRANCH   7  11
ENDBRANCH   6   9
ENDBRANCH   2   6
ENDBRANCH   1   3
BRANCH   1  14
ATOM     14  C   ASP A   3     -38.697   2.911 179.681  0.00  0.00    +0.241 C 
ATOM     15  N   GLU A   4     -37.396   2.764 179.920  0.00  0.00    -0.298 N 
ATOM     16  H   GLU A   4     -36.810   3.616 180.032  0.00  0.00    +0.150 HD
ATOM     17  O   ASP A   3     -39.396   2.035 179.181  0.00  0.00    -0.273 OA
BRANCH  15  18
ATOM     18  CA  GLU A   4     -36.756   1.451 180.032  0.00  0.00    +0.137 C 
BRANCH  18  19
ATOM     19  C   GLU A   4     -36.815   0.542 178.800  0.00  0.00    +0.227 C 
ATOM     20  O   GLU A   4     -37.181  -0.628 178.916  0.00  0.00    -0.286 OA
ENDBRANCH  18  19
BRANCH  18  21
ATOM     21  CB  GLU A   4     -37.336   0.696 181.242  0.00  0.00    +0.039 C 
BRANCH  21  22
ATOM     22  CG  GLU A   4     -37.175   1.442 182.565  0.00  0.00    +0.116 C 
BRANCH  22  23
ATOM     23  CD  GLU A   4     -37.592   0.616 183.765  0.00  0.00    +0.365 C 
ATOM     24  OE2 GLU A   4     -36.799   0.533 184.726  0.00  0.00    -0.246 OA
ATOM     25  OE1 GLU A   4     -38.707   0.046 183.755  0.00  0.00    -0.246 OA
ENDBRANCH  22  23
ENDBRANCH  21  22
ENDBRANCH  18  21
ENDBRANCH  15  18
ENDBRANCH   1  14
BRANCH   1  26
ATOM     26  CB  ASP A   3     -39.837   4.286 181.445  0.00  0.00    +0.143 C 
BRANCH  26  27
ATOM     27  CG  ASP A   3     -41.101   3.475 181.589  0.00  0.00    +0.367 C 
ATOM     28  OD2 ASP A   3     -41.434   3.078 182.722  0.00  0.00    -0.246 OA
ATOM     29  OD1 ASP A   3     -41.776   3.241 180.572  0.00  0.00    -0.246 OA
ENDBRANCH  26  27
ENDBRANCH   1  26
TORSDOF 13
REMARK  Name = ../refined-set-2016/3wmc/3wmc_pocket.pdb
REMARK  140 active torsions:
REMARK  status: ('A' for Active; 'I' for Inactive)
REMARK    1  A    between atoms: _1  and  _3
REMARK    2  A    between atoms: _3  and  _4
REMARK    3  A    between atoms: _3  and  _6
REMARK    4  A    between atoms: _6  and  _7
REMARK    5  A    between atoms: _10  and  _12
REMARK    6  A    between atoms: _12  and  _13
REMARK    7  A    between atoms: _12  and  _15
REMARK    8  A    between atoms: _15  and  _16
REMARK    9  A    between atoms: _16  and  _17
REMARK   10  A    between atoms: _17  and  _18
REMARK   11  A    between atoms: _27  and  _29
REMARK   12  A    between atoms: _29  and  _30
REMARK   13  A    between atoms: _29  and  _32
REMARK   14  A    between atoms: _32  and  _33
REMARK   15  A    between atoms: _38  and  _40
REMARK   16  A    between atoms: _40  and  _41
REMARK   17  A    between atoms: _40  and  _43
REMARK   18  A    between atoms: _43  and  _44
REMARK   19  A    between atoms: _47  and  _49
REMARK   20  A    between atoms: _49  and  _50
REMARK   21  A    between atoms: _49  and  _52
REMARK   22  A    between atoms: _52  and  _53
REMARK   23  A    between atoms: _53  and  _54
REMARK   24  A    between atoms: _57  and  _59
REMARK   25  A    between atoms: _59  and  _60
REMARK   26  A    between atoms: _59  and  _62
REMARK   27  A    between atoms: _62  and  _63
REMARK   28  A    between atoms: _66  and  _68
REMARK   29  A    between atoms: _68  and  _69
REMARK   30  A    between atoms: _68  and  _71
REMARK   31  A    between atoms: _71  and  _72
REMARK   32  A    between atoms: _77  and  _79
REMARK   33  A    between atoms: _79  and  _80
REMARK   34  A    between atoms: _79  and  _82
REMARK   35  A    between atoms: _82  and  _83
REMARK   36  A    between atoms: _93  and  _95
REMARK   37  A    between atoms: _95  and  _96
REMARK   38  A    between atoms: _95  and  _98
REMARK   39  A    between atoms: _101  and  _103
REMARK   40  A    between atoms: _103  and  _104
REMARK   41  A    between atoms: _103  and  _106
REMARK   42  A    between atoms: _106  and  _107
REMARK   43  A    between atoms: _107  and  _108
REMARK   44  A    between atoms: _111  and  _113
REMARK   45  A    between atoms: _113  and  _114
REMARK   46  A    between atoms: _113  and  _116
REMARK   47  A    between atoms: _116  and  _117
REMARK   48  A    between atoms: _122  and  _124
REMARK   49  A    between atoms: _124  and  _125
REMARK   50  A    between atoms: _127  and  _129
REMARK   51  A    between atoms: _129  and  _130
REMARK   52  A    between atoms: _132  and  _134
REMARK   53  A    between atoms: _134  and  _135
REMARK   54  A    between atoms: _134  and  _137
REMARK   55  A    between atoms: _137  and  _138
REMARK   56  A    between atoms: _141  and  _143
REMARK   57  A    between atoms: _143  and  _144
REMARK   58  A    between atoms: _143  and  _146
REMARK   59  A    between atoms: _146  and  _147
REMARK   60  A    between atoms: _147  and  _148
REMARK   61  A    between atoms: _151  and  _153
REMARK   62  A    between atoms: _153  and  _154
REMARK   63  A    between atoms: _153  and  _156
REMARK   64  A    between atoms: _156  and  _157
REMARK   65  A    between atoms: _160  and  _162
REMARK   66  A    between atoms: _162  and  _163
REMARK   67  A    between atoms: _162  and  _165
REMARK   68  A    between atoms: _165  and  _166
REMARK   69  A    between atoms: _176  and  _178
REMARK   70  A    between atoms: _178  and  _179
REMARK   71  A    between atoms: _178  and  _181
REMARK   72  A    between atoms: _181  and  _182
REMARK   73  A    between atoms: _185  and  _187
REMARK   74  A    between atoms: _187  and  _188
REMARK   75  A    between atoms: _187  and  _190
REMARK   76  A    between atoms: _190  and  _191
REMARK   77  A    between atoms: _191  and  _192
REMARK   78  A    between atoms: _197  and  _199
REMARK   79  A    between atoms: _199  and  _200
REMARK   80  A    between atoms: _199  and  _202
REMARK   81  A    between atoms: _205  and  _207
REMARK   82  A    between atoms: _207  and  _208
REMARK   83  A    between atoms: _207  and  _210
REMARK   84  A    between atoms: _210  and  _211
REMARK   85  A    between atoms: _221  and  _223
REMARK   86  A    between atoms: _223  and  _224
REMARK   87  A    between atoms: _223  and  _226
REMARK   88  A    between atoms: _226  and  _227
REMARK   89  A    between atoms: _230  and  _232
REMARK   90  A    between atoms: _232  and  _233
REMARK   91  A    between atoms: _232  and  _235
REMARK   92  A    between atoms: _235  and  _236
REMARK   93  A    between atoms: _239  and  _241
REMARK   94  A    between atoms: _241  and  _242
REMARK   95  A    between atoms: _241  and  _244
REMARK   96  A    between atoms: _244  and  _245
REMARK   97  A    between atoms: _247  and  _249
REMARK   98  A    between atoms: _249  and  _250
REMARK   99  A    between atoms: _249  and  _252
REMARK  100  A    between atoms: _252  and  _253
REMARK  101  A    between atoms: _258  and  _259
REMARK  102  A    between atoms: _261  and  _263
REMARK  103  A    between atoms: _263  and  _264
REMARK  104  A    between atoms: _263  and  _266
REMARK  105  A    between atoms: _266  and  _267
REMARK  106  A    between atoms: _272  and  _273
REMARK  107  A    between atoms: _275  and  _277
REMARK  108  A    between atoms: _277  and  _278
REMARK  109  A    between atoms: _277  and  _280
REMARK  110  A    between atoms: _280  and  _281
REMARK  111  A    between atoms: _284  and  _286
REMARK  112  A    between atoms: _286  and  _287
REMARK  113  A    between atoms: _286  and  _289
REMARK  114  A    between atoms: _289  and  _290
REMARK  115  A    between atoms: _300  and  _302
REMARK  116  A    between atoms: _302  and  _303
REMARK  117  A    between atoms: _302  and  _305
REMARK  118  A    between atoms: _305  and  _306
REMARK  119  A    between atoms: _311  and  _313
REMARK  120  A    between atoms: _313  and  _314
REMARK  121  A    between atoms: _313  and  _316
REMARK  122  A    between atoms: _316  and  _317
REMARK  123  A    between atoms: _327  and  _329
REMARK  124  A    between atoms: _329  and  _330
REMARK  125  A    between atoms: _329  and  _332
REMARK  126  A    between atoms: _334  and  _336
REMARK  127  A    between atoms: _336  and  _337
REMARK  128  A    between atoms: _336  and  _339
REMARK  129  A    between atoms: _339  and  _340
REMARK  130  A    between atoms: _342  and  _344
REMARK  131  A    between atoms: _344  and  _345
REMARK  132  A    between atoms: _348  and  _350
REMARK  133  A    between atoms: _350  and  _351
REMARK  134  A    between atoms: _350  and  _353
REMARK  135  A    between atoms: _353  and  _354
REMARK  136  A    between atoms: _364  and  _366
REMARK  137  A    between atoms: _366  and  _367
REMARK  138  A    between atoms: _366  and  _369
REMARK  139  A    between atoms: _369  and  _370
REMARK  140  A    between atoms: _370  and  _371
REMARK                            x       y       z     vdW  Elec       q    Type
REMARK                         _______ _______ _______ _____ _____    ______ ____
ROOT
ATOM      1  CA  TRP A   2     -39.800   9.608 181.267  0.00  0.00    +0.153 C 
ENDROOT
BRANCH   1   4
ATOM      2  C   LEU A   1     -40.991  10.940 179.611  0.00  0.00    +0.238 C 
ATOM      3  O   LEU A   1     -40.607  11.988 180.128  0.00  0.00    -0.274 OA
ATOM      4  N   TRP A   2     -40.707   9.745 180.125  0.00  0.00    -0.297 N 
ATOM      5  H   TRP A   2     -41.137   8.894 179.709  0.00  0.00    +0.150 HD
BRANCH   2   6
ATOM      6  CA  LEU A   1     -41.836  10.981 178.339  0.00  0.00    +0.145 C 
BRANCH   6   7
ATOM      7  N   LEU A   1     -42.669  12.185 178.396  0.00  0.00    -0.238 NA
ATOM      8  H   LEU A   1     -42.219  13.088 178.648  0.00  0.00    +0.142 HD
ENDBRANCH   6   7
BRANCH   6   9
ATOM      9  CB  LEU A   1     -40.917  11.043 177.112  0.00  0.00    +0.026 C 
BRANCH   9  10
ATOM     10  CG  LEU A   1     -41.151  10.158 175.885  0.00  0.00    +0.002 C 
ATOM     11  CD2 LEU A   1     -42.608   9.809 175.676  0.00  0.00    +0.000 C 
ATOM     12  CD1 LEU A   1     -40.574  10.823 174.642  0.00  0.00    +0.000 C 
ENDBRANCH   9  10
ENDBRANCH   6   9
ENDBRANCH   2   6
ENDBRANCH   1   4
BRANCH   1  13
ATOM     13  C   TRP A   2     -38.363   9.880 180.849  0.00  0.00    +0.241 C 
ATOM     14  N   THR A   3     -37.510  10.224 181.815  0.00  0.00    -0.296 N 
ATOM     15  H   THR A   3     -37.874  10.473 182.757  0.00  0.00    +0.150 HD
ATOM     16  O   TRP A   2     -38.030   9.769 179.665  0.00  0.00    -0.273 OA
BRANCH  14  17
ATOM     17  CA  THR A   3     -36.070  10.255 181.565  0.00  0.00    +0.164 C 
BRANCH  17  18
ATOM     18  CB  THR A   3     -35.252  10.678 182.802  0.00  0.00    +0.136 C 
ATOM     19  CG2 THR A   3     -35.311  12.178 182.994  0.00  0.00    +0.034 C 
BRANCH  18  20
ATOM     20  OG1 THR A   3     -35.767  10.029 183.973  0.00  0.00    -0.382 OA
ATOM     21  HG1 THR A   3     -35.704   9.048 183.859  0.00  0.00    +0.210 HD
ENDBRANCH  18  20
ENDBRANCH  17  18
BRANCH  17  22
ATOM     22  C   THR A   3     -35.640   8.855 181.174  0.00  0.00    +0.229 C 
ATOM     23  O   THR A   3     -36.103   7.868 181.751  0.00  0.00    -0.286 OA
ENDBRANCH  17  22
ENDBRANCH  14  17
ENDBRANCH   1  13
BRANCH   1  24
ATOM     24  CB  TRP A   2     -39.858   8.186 181.832  0.00  0.00    +0.057 C 
BRANCH  24  25
ATOM     25  CG  TRP A   2     -41.125   7.862 182.526  0.00  0.00    -0.002 A 
ATOM     26  CD2 TRP A   2     -41.464   8.188 183.876  0.00  0.00    +0.013 A 
ATOM     27  CE3 TRP A   2     -40.799   8.856 184.906  0.00  0.00    +0.001 A 
ATOM     28  CZ3 TRP A   2     -41.431   8.995 186.123  0.00  0.00    +0.000 A 
ATOM     29  CH2 TRP A   2     -42.715   8.494 186.328  0.00  0.00    +0.001 A 
ATOM     30  CZ2 TRP A   2     -43.394   7.840 185.338  0.00  0.00    +0.017 A 
ATOM     31  CE2 TRP A   2     -42.754   7.690 184.114  0.00  0.00    +0.056 A 
ATOM     32  NE1 TRP A   2     -43.181   7.085 182.962  0.00  0.00    -0.352 N 
ATOM     33  HE1 TRP A   2     -44.101   6.620 182.828  0.00  0.00    +0.166 HD
ATOM     34  CD1 TRP A   2     -42.195   7.193 182.012  0.00  0.00    +0.068 A 
ENDBRANCH  24  25
ENDBRANCH   1  24
TORSDOF 12
REMARK  Name = ../refined-set-2016/3wmc/3wmc_pocket.pdb
REMARK  140 active torsions:
REMARK  status: ('A' for Active; 'I' for Inactive)
REMARK    1  A    between atoms: _1  and  _3
REMARK    2  A    between atoms: _3  and  _4
REMARK    3  A    between atoms: _3  and  _6
REMARK    4  A    between atoms: _6  and  _7
REMARK    5  A    between atoms: _10  and  _12
REMARK    6  A    between atoms: _12  and  _13
REMARK    7  A    between atoms: _12  and  _15
REMARK    8  A    between atoms: _15  and  _16
REMARK    9  A    between atoms: _16  and  _17
REMARK   10  A    between atoms: _17  and  _18
REMARK   11  A    between atoms: _27  and  _29
REMARK   12  A    between atoms: _29  and  _30
REMARK   13  A    between atoms: _29  and  _32
REMARK   14  A    between atoms: _32  and  _33
REMARK   15  A    between atoms: _38  and  _40
REMARK   16  A    between atoms: _40  and  _41
REMARK   17  A    between atoms: _40  and  _43
REMARK   18  A    between atoms: _43  and  _44
REMARK   19  A    between atoms: _47  and  _49
REMARK   20  A    between atoms: _49  and  _50
REMARK   21  A    between atoms: _49  and  _52
REMARK   22  A    between atoms: _52  and  _53
REMARK   23  A    between atoms: _53  and  _54
REMARK   24  A    between atoms: _57  and  _59
REMARK   25  A    between atoms: _59  and  _60
REMARK   26  A    between atoms: _59  and  _62
REMARK   27  A    between atoms: _62  and  _63
REMARK   28  A    between atoms: _66  and  _68
REMARK   29  A    between atoms: _68  and  _69
REMARK   30  A    between atoms: _68  and  _71
REMARK   31  A    between atoms: _71  and  _72
REMARK   32  A    between atoms: _77  and  _79
REMARK   33  A    between atoms: _79  and  _80
REMARK   34  A    between atoms: _79  and  _82
REMARK   35  A    between atoms: _82  and  _83
REMARK   36  A    between atoms: _93  and  _95
REMARK   37  A    between atoms: _95  and  _96
REMARK   38  A    between atoms: _95  and  _98
REMARK   39  A    between atoms: _101  and  _103
REMARK   40  A    between atoms: _103  and  _104
REMARK   41  A    between atoms: _103  and  _106
REMARK   42  A    between atoms: _106  and  _107
REMARK   43  A    between atoms: _107  and  _108
REMARK   44  A    between atoms: _111  and  _113
REMARK   45  A    between atoms: _113  and  _114
REMARK   46  A    between atoms: _113  and  _116
REMARK   47  A    between atoms: _116  and  _117
REMARK   48  A    between atoms: _122  and  _124
REMARK   49  A    between atoms: _124  and  _125
REMARK   50  A    between atoms: _127  and  _129
REMARK   51  A    between atoms: _129  and  _130
REMARK   52  A    between atoms: _132  and  _134
REMARK   53  A    between atoms: _134  and  _135
REMARK   54  A    between atoms: _134  and  _137
REMARK   55  A    between atoms: _137  and  _138
REMARK   56  A    between atoms: _141  and  _143
REMARK   57  A    between atoms: _143  and  _144
REMARK   58  A    between atoms: _143  and  _146
REMARK   59  A    between atoms: _146  and  _147
REMARK   60  A    between atoms: _147  and  _148
REMARK   61  A    between atoms: _151  and  _153
REMARK   62  A    between atoms: _153  and  _154
REMARK   63  A    between atoms: _153  and  _156
REMARK   64  A    between atoms: _156  and  _157
REMARK   65  A    between atoms: _160  and  _162
REMARK   66  A    between atoms: _162  and  _163
REMARK   67  A    between atoms: _162  and  _165
REMARK   68  A    between atoms: _165  and  _166
REMARK   69  A    between atoms: _176  and  _178
REMARK   70  A    between atoms: _178  and  _179
REMARK   71  A    between atoms: _178  and  _181
REMARK   72  A    between atoms: _181  and  _182
REMARK   73  A    between atoms: _185  and  _187
REMARK   74  A    between atoms: _187  and  _188
REMARK   75  A    between atoms: _187  and  _190
REMARK   76  A    between atoms: _190  and  _191
REMARK   77  A    between atoms: _191  and  _192
REMARK   78  A    between atoms: _197  and  _199
REMARK   79  A    between atoms: _199  and  _200
REMARK   80  A    between atoms: _199  and  _202
REMARK   81  A    between atoms: _205  and  _207
REMARK   82  A    between atoms: _207  and  _208
REMARK   83  A    between atoms: _207  and  _210
REMARK   84  A    between atoms: _210  and  _211
REMARK   85  A    between atoms: _221  and  _223
REMARK   86  A    between atoms: _223  and  _224
REMARK   87  A    between atoms: _223  and  _226
REMARK   88  A    between atoms: _226  and  _227
REMARK   89  A    between atoms: _230  and  _232
REMARK   90  A    between atoms: _232  and  _233
REMARK   91  A    between atoms: _232  and  _235
REMARK   92  A    between atoms: _235  and  _236
REMARK   93  A    between atoms: _239  and  _241
REMARK   94  A    between atoms: _241  and  _242
REMARK   95  A    between atoms: _241  and  _244
REMARK   96  A    between atoms: _244  and  _245
REMARK   97  A    between atoms: _247  and  _249
REMARK   98  A    between atoms: _249  and  _250
REMARK   99  A    between atoms: _249  and  _252
REMARK  100  A    between atoms: _252  and  _253
REMARK  101  A    between atoms: _258  and  _259
REMARK  102  A    between atoms: _261  and  _263
REMARK  103  A    between atoms: _263  and  _264
REMARK  104  A    between atoms: _263  and  _266
REMARK  105  A    between atoms: _266  and  _267
REMARK  106  A    between atoms: _272  and  _273
REMARK  107  A    between atoms: _275  and  _277
REMARK  108  A    between atoms: _277  and  _278
REMARK  109  A    between atoms: _277  and  _280
REMARK  110  A    between atoms: _280  and  _281
REMARK  111  A    between atoms: _284  and  _286
REMARK  112  A    between atoms: _286  and  _287
REMARK  113  A    between atoms: _286  and  _289
REMARK  114  A    between atoms: _289  and  _290
REMARK  115  A    between atoms: _300  and  _302
REMARK  116  A    between atoms: _302  and  _303
REMARK  117  A    between atoms: _302  and  _305
REMARK  118  A    between atoms: _305  and  _306
REMARK  119  A    between atoms: _311  and  _313
REMARK  120  A    between atoms: _313  and  _314
REMARK  121  A    between atoms: _313  and  _316
REMARK  122  A    between atoms: _316  and  _317
REMARK  123  A    between atoms: _327  and  _329
REMARK  124  A    between atoms: _329  and  _330
REMARK  125  A    between atoms: _329  and  _332
REMARK  126  A    between atoms: _334  and  _336
REMARK  127  A    between atoms: _336  and  _337
REMARK  128  A    between atoms: _336  and  _339
REMARK  129  A    between atoms: _339  and  _340
REMARK  130  A    between atoms: _342  and  _344
REMARK  131  A    between atoms: _344  and  _345
REMARK  132  A    between atoms: _348  and  _350
REMARK  133  A    between atoms: _350  and  _351
REMARK  134  A    between atoms: _350  and  _353
REMARK  135  A    between atoms: _353  and  _354
REMARK  136  A    between atoms: _364  and  _366
REMARK  137  A    between atoms: _366  and  _367
REMARK  138  A    between atoms: _366  and  _369
REMARK  139  A    between atoms: _369  and  _370
REMARK  140  A    between atoms: _370  and  _371
REMARK                            x       y       z     vdW  Elec       q    Type
REMARK                         _______ _______ _______ _____ _____    ______ ____
ROOT
ATOM      1  CA  TRP A   3     -37.196   9.844 188.076  0.00  0.00    +0.153 C 
ENDROOT
BRANCH   1   4
ATOM      2  C   VAL A   2     -37.884  11.906 187.099  0.00  0.00    +0.241 C 
ATOM      3  O   VAL A   2     -38.541  12.219 188.091  0.00  0.00    -0.273 OA
ATOM      4  N   TRP A   3     -37.333  10.726 186.946  0.00  0.00    -0.297 N 
ATOM      5  H   TRP A   3     -36.995  10.427 186.009  0.00  0.00    +0.150 HD
BRANCH   2   6
ATOM      6  CA  VAL A   2     -37.758  12.873 185.935  0.00  0.00    +0.148 C 
BRANCH   6   8
ATOM      7  C   GLN A   1     -39.561  12.691 184.322  0.00  0.00    +0.238 C 
ATOM      8  N   VAL A   2     -39.057  13.259 185.411  0.00  0.00    -0.297 N 
ATOM      9  H   VAL A   2     -39.604  13.996 185.900  0.00  0.00    +0.150 HD
ATOM     10  O   GLN A   1     -39.047  11.714 183.778  0.00  0.00    -0.274 OA
BRANCH   7  11
ATOM     11  CA  GLN A   1     -40.826  13.330 183.757  0.00  0.00    +0.145 C 
BRANCH  11  12
ATOM     12  N   GLN A   1     -40.599  13.705 182.365  0.00  0.00    -0.238 NA
ATOM     13  H   GLN A   1     -40.838  13.040 181.602  0.00  0.00    +0.142 HD
ENDBRANCH  11  12
BRANCH  11  14
ATOM     14  CB  GLN A   1     -42.037  12.394 183.921  0.00  0.00    +0.036 C 
BRANCH  14  15
ATOM     15  CG  GLN A   1     -42.392  12.157 185.399  0.00  0.00    +0.087 C 
BRANCH  15  16
ATOM     16  CD  GLN A   1     -43.787  11.587 185.606  0.00  0.00    +0.219 C 
ATOM     17  NE2 GLN A   1     -44.204  11.494 186.866  0.00  0.00    -0.329 N 
ATOM     18 HE21 GLN A   1     -43.584  11.800 187.643  0.00  0.00    +0.145 HD
ATOM     19 HE22 GLN A   1     -45.150  11.115 187.074  0.00  0.00    +0.145 HD
ATOM     20  OE1 GLN A   1     -44.483  11.238 184.648  0.00  0.00    -0.275 OA
ENDBRANCH  15  16
ENDBRANCH  14  15
ENDBRANCH  11  14
ENDBRANCH   7  11
ENDBRANCH   6   8
BRANCH   6  21
ATOM     21  CB  VAL A   2     -36.989  14.115 186.418  0.00  0.00    +0.027 C 
ATOM     22  CG2 VAL A   2     -35.678  13.709 187.066  0.00  0.00    +0.002 C 
ATOM     23  CG1 VAL A   2     -36.749  15.068 185.252  0.00  0.00    +0.002 C 
ENDBRANCH   6  21
ENDBRANCH   2   6
ENDBRANCH   1   4
BRANCH   1  24
ATOM     24  C   TRP A   3     -35.830   9.477 188.553  0.00  0.00    +0.241 C 
ATOM     25  O   TRP A   3     -35.705   8.680 189.437  0.00  0.00    -0.273 OA
ATOM     26  N   THR A   4     -34.837  10.183 188.070  0.00  0.00    -0.295 N 
ATOM     27  H   THR A   4     -35.038  10.850 187.297  0.00  0.00    +0.150 HD
BRANCH  26  28
ATOM     28  CA  THR A   4     -33.462  10.084 188.559  0.00  0.00    +0.176 C 
BRANCH  28  29
ATOM     29  C   THR A   4     -33.392  10.715 189.946  0.00  0.00    +0.243 C 
ATOM     30  N   THR A   5     -32.259  10.600 190.636  0.00  0.00    -0.296 N 
ATOM     31  H   THR A   5     -31.485  10.009 190.270  0.00  0.00    +0.150 HD
ATOM     32  O   THR A   4     -34.362  11.311 190.387  0.00  0.00    -0.273 OA
BRANCH  30  33
ATOM     33  CA  THR A   5     -32.102  11.304 191.909  0.00  0.00    +0.164 C 
BRANCH  33  34
ATOM     34  CB  THR A   5     -30.803  10.924 192.656  0.00  0.00    +0.136 C 
ATOM     35  CG2 THR A   5     -30.680   9.413 192.793  0.00  0.00    +0.034 C 
BRANCH  34  36
ATOM     36  OG1 THR A   5     -29.667  11.435 191.946  0.00  0.00    -0.382 OA
ATOM     37  HG1 THR A   5     -29.647  11.047 191.035  0.00  0.00    +0.210 HD
ENDBRANCH  34  36
ENDBRANCH  33  34
BRANCH  33  38
ATOM     38  C   THR A   5     -32.090  12.800 191.641  0.00  0.00    +0.229 C 
ATOM     39  O   THR A   5     -31.850  13.229 190.512  0.00  0.00    -0.286 OA
ENDBRANCH  33  38
ENDBRANCH  30  33
ENDBRANCH  28  29
BRANCH  28  40
ATOM     40  CB  THR A   4     -32.497  10.854 187.650  0.00  0.00    +0.137 C 
ATOM     41  CG2 THR A   4     -32.632  10.394 186.207  0.00  0.00    +0.034 C 
BRANCH  40  42
ATOM     42  OG1 THR A   4     -32.795  12.253 187.726  0.00  0.00    -0.382 OA
ATOM     43  HG1 THR A   4     -32.690  12.561 188.661  0.00  0.00    +0.210 HD
ENDBRANCH  40  42
ENDBRANCH  28  40
ENDBRANCH  26  28
ENDBRANCH   1  24
BRANCH   1  44
ATOM     44  CB  TRP A   3     -38.006   8.565 187.871  0.00  0.00    +0.057 C 
BRANCH  44  45
ATOM     45  CG  TRP A   3     -37.599   7.686 186.695  0.00  0.00    -0.002 A 
ATOM     46  CD2 TRP A   3     -37.269   6.298 186.730  0.00  0.00    +0.013 A 
ATOM     47  CE3 TRP A   3     -37.190   5.341 187.740  0.00  0.00    +0.001 A 
ATOM     48  CZ3 TRP A   3     -36.823   4.070 187.415  0.00  0.00    +0.000 A 
ATOM     49  CH2 TRP A   3     -36.554   3.711 186.126  0.00  0.00    +0.001 A 
ATOM     50  CZ2 TRP A   3     -36.633   4.611 185.105  0.00  0.00    +0.017 A 
ATOM     51  CE2 TRP A   3     -36.989   5.907 185.420  0.00  0.00    +0.056 A 
ATOM     52  NE1 TRP A   3     -37.143   7.004 184.630  0.00  0.00    -0.352 N 
ATOM     53  HE1 TRP A   3     -36.984   7.038 183.603  0.00  0.00    +0.166 HD
ATOM     54  CD1 TRP A   3     -37.536   8.042 185.399  0.00  0.00    +0.068 A 
ENDBRANCH  44  45
ENDBRANCH   1  44
TORSDOF 20
REMARK  Name = ../refined-set-2016/3wmc/3wmc_pocket.pdb
REMARK  140 active torsions:
REMARK  status: ('A' for Active; 'I' for Inactive)
REMARK    1  A    between atoms: _1  and  _3
REMARK    2  A    between atoms: _3  and  _4
REMARK    3  A    between atoms: _3  and  _6
REMARK    4  A    between atoms: _6  and  _7
REMARK    5  A    between atoms: _10  and  _12
REMARK    6  A    between atoms: _12  and  _13
REMARK    7  A    between atoms: _12  and  _15
REMARK    8  A    between atoms: _15  and  _16
REMARK    9  A    between atoms: _16  and  _17
REMARK   10  A    between atoms: _17  and  _18
REMARK   11  A    between atoms: _27  and  _29
REMARK   12  A    between atoms: _29  and  _30
REMARK   13  A    between atoms: _29  and  _32
REMARK   14  A    between atoms: _32  and  _33
REMARK   15  A    between atoms: _38  and  _40
REMARK   16  A    between atoms: _40  and  _41
REMARK   17  A    between atoms: _40  and  _43
REMARK   18  A    between atoms: _43  and  _44
REMARK   19  A    between atoms: _47  and  _49
REMARK   20  A    between atoms: _49  and  _50
REMARK   21  A    between atoms: _49  and  _52
REMARK   22  A    between atoms: _52  and  _53
REMARK   23  A    between atoms: _53  and  _54
REMARK   24  A    between atoms: _57  and  _59
REMARK   25  A    between atoms: _59  and  _60
REMARK   26  A    between atoms: _59  and  _62
REMARK   27  A    between atoms: _62  and  _63
REMARK   28  A    between atoms: _66  and  _68
REMARK   29  A    between atoms: _68  and  _69
REMARK   30  A    between atoms: _68  and  _71
REMARK   31  A    between atoms: _71  and  _72
REMARK   32  A    between atoms: _77  and  _79
REMARK   33  A    between atoms: _79  and  _80
REMARK   34  A    between atoms: _79  and  _82
REMARK   35  A    between atoms: _82  and  _83
REMARK   36  A    between atoms: _93  and  _95
REMARK   37  A    between atoms: _95  and  _96
REMARK   38  A    between atoms: _95  and  _98
REMARK   39  A    between atoms: _101  and  _103
REMARK   40  A    between atoms: _103  and  _104
REMARK   41  A    between atoms: _103  and  _106
REMARK   42  A    between atoms: _106  and  _107
REMARK   43  A    between atoms: _107  and  _108
REMARK   44  A    between atoms: _111  and  _113
REMARK   45  A    between atoms: _113  and  _114
REMARK   46  A    between atoms: _113  and  _116
REMARK   47  A    between atoms: _116  and  _117
REMARK   48  A    between atoms: _122  and  _124
REMARK   49  A    between atoms: _124  and  _125
REMARK   50  A    between atoms: _127  and  _129
REMARK   51  A    between atoms: _129  and  _130
REMARK   52  A    between atoms: _132  and  _134
REMARK   53  A    between atoms: _134  and  _135
REMARK   54  A    between atoms: _134  and  _137
REMARK   55  A    between atoms: _137  and  _138
REMARK   56  A    between atoms: _141  and  _143
REMARK   57  A    between atoms: _143  and  _144
REMARK   58  A    between atoms: _143  and  _146
REMARK   59  A    between atoms: _146  and  _147
REMARK   60  A    between atoms: _147  and  _148
REMARK   61  A    between atoms: _151  and  _153
REMARK   62  A    between atoms: _153  and  _154
REMARK   63  A    between atoms: _153  and  _156
REMARK   64  A    between atoms: _156  and  _157
REMARK   65  A    between atoms: _160  and  _162
REMARK   66  A    between atoms: _162  and  _163
REMARK   67  A    between atoms: _162  and  _165
REMARK   68  A    between atoms: _165  and  _166
REMARK   69  A    between atoms: _176  and  _178
REMARK   70  A    between atoms: _178  and  _179
REMARK   71  A    between atoms: _178  and  _181
REMARK   72  A    between atoms: _181  and  _182
REMARK   73  A    between atoms: _185  and  _187
REMARK   74  A    between atoms: _187  and  _188
REMARK   75  A    between atoms: _187  and  _190
REMARK   76  A    between atoms: _190  and  _191
REMARK   77  A    between atoms: _191  and  _192
REMARK   78  A    between atoms: _197  and  _199
REMARK   79  A    between atoms: _199  and  _200
REMARK   80  A    between atoms: _199  and  _202
REMARK   81  A    between atoms: _205  and  _207
REMARK   82  A    between atoms: _207  and  _208
REMARK   83  A    between atoms: _207  and  _210
REMARK   84  A    between atoms: _210  and  _211
REMARK   85  A    between atoms: _221  and  _223
REMARK   86  A    between atoms: _223  and  _224
REMARK   87  A    between atoms: _223  and  _226
REMARK   88  A    between atoms: _226  and  _227
REMARK   89  A    between atoms: _230  and  _232
REMARK   90  A    between atoms: _232  and  _233
REMARK   91  A    between atoms: _232  and  _235
REMARK   92  A    between atoms: _235  and  _236
REMARK   93  A    between atoms: _239  and  _241
REMARK   94  A    between atoms: _241  and  _242
REMARK   95  A    between atoms: _241  and  _244
REMARK   96  A    between atoms: _244  and  _245
REMARK   97  A    between atoms: _247  and  _249
REMARK   98  A    between atoms: _249  and  _250
REMARK   99  A    between atoms: _249  and  _252
REMARK  100  A    between atoms: _252  and  _253
REMARK  101  A    between atoms: _258  and  _259
REMARK  102  A    between atoms: _261  and  _263
REMARK  103  A    between atoms: _263  and  _264
REMARK  104  A    between atoms: _263  and  _266
REMARK  105  A    between atoms: _266  and  _267
REMARK  106  A    between atoms: _272  and  _273
REMARK  107  A    between atoms: _275  and  _277
REMARK  108  A    between atoms: _277  and  _278
REMARK  109  A    between atoms: _277  and  _280
REMARK  110  A    between atoms: _280  and  _281
REMARK  111  A    between atoms: _284  and  _286
REMARK  112  A    between atoms: _286  and  _287
REMARK  113  A    between atoms: _286  and  _289
REMARK  114  A    between atoms: _289  and  _290
REMARK  115  A    between atoms: _300  and  _302
REMARK  116  A    between atoms: _302  and  _303
REMARK  117  A    between atoms: _302  and  _305
REMARK  118  A    between atoms: _305  and  _306
REMARK  119  A    between atoms: _311  and  _313
REMARK  120  A    between atoms: _313  and  _314
REMARK  121  A    between atoms: _313  and  _316
REMARK  122  A    between atoms: _316  and  _317
REMARK  123  A    between atoms: _327  and  _329
REMARK  124  A    between atoms: _329  and  _330
REMARK  125  A    between atoms: _329  and  _332
REMARK  126  A    between atoms: _334  and  _336
REMARK  127  A    between atoms: _336  and  _337
REMARK  128  A    between atoms: _336  and  _339
REMARK  129  A    between atoms: _339  and  _340
REMARK  130  A    between atoms: _342  and  _344
REMARK  131  A    between atoms: _344  and  _345
REMARK  132  A    between atoms: _348  and  _350
REMARK  133  A    between atoms: _350  and  _351
REMARK  134  A    between atoms: _350  and  _353
REMARK  135  A    between atoms: _353  and  _354
REMARK  136  A    between atoms: _364  and  _366
REMARK  137  A    between atoms: _366  and  _367
REMARK  138  A    between atoms: _366  and  _369
REMARK  139  A    between atoms: _369  and  _370
REMARK  140  A    between atoms: _370  and  _371
REMARK                            x       y       z     vdW  Elec       q    Type
REMARK                         _______ _______ _______ _____ _____    ______ ____
ROOT
ATOM      1  CA  SER A   1     -40.646  12.424 190.487  0.00  0.00    +0.163 C 
ENDROOT
BRANCH   1   2
ATOM      2  N   SER A   1     -40.242  13.609 189.750  0.00  0.00    -0.237 NA
ATOM      3  H   SER A   1     -39.500  13.527 189.026  0.00  0.00    +0.142 HD
ENDBRANCH   1   2
BRANCH   1   4
ATOM      4  CB  SER A   1     -39.393  11.677 190.930  0.00  0.00    +0.227 C 
ATOM      5  OG  SER A   1     -39.304  10.461 190.759  0.00  0.00    -0.287 OA
ENDBRANCH   1   4
BRANCH   1   6
ATOM      6  C   SER A   1     -41.500  11.510 189.610  0.00  0.00    +0.162 C 
BRANCH   6   7
ATOM      7  O   SER A   1     -42.715  12.139 189.231  0.00  0.00    -0.380 OA
ATOM      8  H   SER A   1     -43.233  12.369 190.043  0.00  0.00    +0.211 HD
ENDBRANCH   6   7
ENDBRANCH   1   6
TORSDOF 4
REMARK  Name = ../refined-set-2016/3wmc/3wmc_pocket.pdb
REMARK  140 active torsions:
REMARK  status: ('A' for Active; 'I' for Inactive)
REMARK    1  A    between atoms: _1  and  _3
REMARK    2  A    between atoms: _3  and  _4
REMARK    3  A    between atoms: _3  and  _6
REMARK    4  A    between atoms: _6  and  _7
REMARK    5  A    between atoms: _10  and  _12
REMARK    6  A    between atoms: _12  and  _13
REMARK    7  A    between atoms: _12  and  _15
REMARK    8  A    between atoms: _15  and  _16
REMARK    9  A    between atoms: _16  and  _17
REMARK   10  A    between atoms: _17  and  _18
REMARK   11  A    between atoms: _27  and  _29
REMARK   12  A    between atoms: _29  and  _30
REMARK   13  A    between atoms: _29  and  _32
REMARK   14  A    between atoms: _32  and  _33
REMARK   15  A    between atoms: _38  and  _40
REMARK   16  A    between atoms: _40  and  _41
REMARK   17  A    between atoms: _40  and  _43
REMARK   18  A    between atoms: _43  and  _44
REMARK   19  A    between atoms: _47  and  _49
REMARK   20  A    between atoms: _49  and  _50
REMARK   21  A    between atoms: _49  and  _52
REMARK   22  A    between atoms: _52  and  _53
REMARK   23  A    between atoms: _53  and  _54
REMARK   24  A    between atoms: _57  and  _59
REMARK   25  A    between atoms: _59  and  _60
REMARK   26  A    between atoms: _59  and  _62
REMARK   27  A    between atoms: _62  and  _63
REMARK   28  A    between atoms: _66  and  _68
REMARK   29  A    between atoms: _68  and  _69
REMARK   30  A    between atoms: _68  and  _71
REMARK   31  A    between atoms: _71  and  _72
REMARK   32  A    between atoms: _77  and  _79
REMARK   33  A    between atoms: _79  and  _80
REMARK   34  A    between atoms: _79  and  _82
REMARK   35  A    between atoms: _82  and  _83
REMARK   36  A    between atoms: _93  and  _95
REMARK   37  A    between atoms: _95  and  _96
REMARK   38  A    between atoms: _95  and  _98
REMARK   39  A    between atoms: _101  and  _103
REMARK   40  A    between atoms: _103  and  _104
REMARK   41  A    between atoms: _103  and  _106
REMARK   42  A    between atoms: _106  and  _107
REMARK   43  A    between atoms: _107  and  _108
REMARK   44  A    between atoms: _111  and  _113
REMARK   45  A    between atoms: _113  and  _114
REMARK   46  A    between atoms: _113  and  _116
REMARK   47  A    between atoms: _116  and  _117
REMARK   48  A    between atoms: _122  and  _124
REMARK   49  A    between atoms: _124  and  _125
REMARK   50  A    between atoms: _127  and  _129
REMARK   51  A    between atoms: _129  and  _130
REMARK   52  A    between atoms: _132  and  _134
REMARK   53  A    between atoms: _134  and  _135
REMARK   54  A    between atoms: _134  and  _137
REMARK   55  A    between atoms: _137  and  _138
REMARK   56  A    between atoms: _141  and  _143
REMARK   57  A    between atoms: _143  and  _144
REMARK   58  A    between atoms: _143  and  _146
REMARK   59  A    between atoms: _146  and  _147
REMARK   60  A    between atoms: _147  and  _148
REMARK   61  A    between atoms: _151  and  _153
REMARK   62  A    between atoms: _153  and  _154
REMARK   63  A    between atoms: _153  and  _156
REMARK   64  A    between atoms: _156  and  _157
REMARK   65  A    between atoms: _160  and  _162
REMARK   66  A    between atoms: _162  and  _163
REMARK   67  A    between atoms: _162  and  _165
REMARK   68  A    between atoms: _165  and  _166
REMARK   69  A    between atoms: _176  and  _178
REMARK   70  A    between atoms: _178  and  _179
REMARK   71  A    between atoms: _178  and  _181
REMARK   72  A    between atoms: _181  and  _182
REMARK   73  A    between atoms: _185  and  _187
REMARK   74  A    between atoms: _187  and  _188
REMARK   75  A    between atoms: _187  and  _190
REMARK   76  A    between atoms: _190  and  _191
REMARK   77  A    between atoms: _191  and  _192
REMARK   78  A    between atoms: _197  and  _199
REMARK   79  A    between atoms: _199  and  _200
REMARK   80  A    between atoms: _199  and  _202
REMARK   81  A    between atoms: _205  and  _207
REMARK   82  A    between atoms: _207  and  _208
REMARK   83  A    between atoms: _207  and  _210
REMARK   84  A    between atoms: _210  and  _211
REMARK   85  A    between atoms: _221  and  _223
REMARK   86  A    between atoms: _223  and  _224
REMARK   87  A    between atoms: _223  and  _226
REMARK   88  A    between atoms: _226  and  _227
REMARK   89  A    between atoms: _230  and  _232
REMARK   90  A    between atoms: _232  and  _233
REMARK   91  A    between atoms: _232  and  _235
REMARK   92  A    between atoms: _235  and  _236
REMARK   93  A    between atoms: _239  and  _241
REMARK   94  A    between atoms: _241  and  _242
REMARK   95  A    between atoms: _241  and  _244
REMARK   96  A    between atoms: _244  and  _245
REMARK   97  A    between atoms: _247  and  _249
REMARK   98  A    between atoms: _249  and  _250
REMARK   99  A    between atoms: _249  and  _252
REMARK  100  A    between atoms: _252  and  _253
REMARK  101  A    between atoms: _258  and  _259
REMARK  102  A    between atoms: _261  and  _263
REMARK  103  A    between atoms: _263  and  _264
REMARK  104  A    between atoms: _263  and  _266
REMARK  105  A    between atoms: _266  and  _267
REMARK  106  A    between atoms: _272  and  _273
REMARK  107  A    between atoms: _275  and  _277
REMARK  108  A    between atoms: _277  and  _278
REMARK  109  A    between atoms: _277  and  _280
REMARK  110  A    between atoms: _280  and  _281
REMARK  111  A    between atoms: _284  and  _286
REMARK  112  A    between atoms: _286  and  _287
REMARK  113  A    between atoms: _286  and  _289
REMARK  114  A    between atoms: _289  and  _290
REMARK  115  A    between atoms: _300  and  _302
REMARK  116  A    between atoms: _302  and  _303
REMARK  117  A    between atoms: _302  and  _305
REMARK  118  A    between atoms: _305  and  _306
REMARK  119  A    between atoms: _311  and  _313
REMARK  120  A    between atoms: _313  and  _314
REMARK  121  A    between atoms: _313  and  _316
REMARK  122  A    between atoms: _316  and  _317
REMARK  123  A    between atoms: _327  and  _329
REMARK  124  A    between atoms: _329  and  _330
REMARK  125  A    between atoms: _329  and  _332
REMARK  126  A    between atoms: _334  and  _336
REMARK  127  A    between atoms: _336  and  _337
REMARK  128  A    between atoms: _336  and  _339
REMARK  129  A    between atoms: _339  and  _340
REMARK  130  A    between atoms: _342  and  _344
REMARK  131  A    between atoms: _344  and  _345
REMARK  132  A    between atoms: _348  and  _350
REMARK  133  A    between atoms: _350  and  _351
REMARK  134  A    between atoms: _350  and  _353
REMARK  135  A    between atoms: _353  and  _354
REMARK  136  A    between atoms: _364  and  _366
REMARK  137  A    between atoms: _366  and  _367
REMARK  138  A    between atoms: _366  and  _369
REMARK  139  A    between atoms: _369  and  _370
REMARK  140  A    between atoms: _370  and  _371
REMARK                            x       y       z     vdW  Elec       q    Type
REMARK                         _______ _______ _______ _____ _____    ______ ____
ROOT
ATOM      1  CG  TYR A   1     -35.085   6.673 192.522  0.00  0.00    -0.020 A 
ATOM      2  CD2 TYR A   1     -34.614   5.885 193.564  0.00  0.00    -0.001 A 
ATOM      3  CE2 TYR A   1     -33.275   5.593 193.685  0.00  0.00    +0.036 A 
ATOM      4  CZ  TYR A   1     -32.391   6.074 192.748  0.00  0.00    +0.134 A 
ATOM      5  CE1 TYR A   1     -32.834   6.842 191.699  0.00  0.00    +0.036 A 
ATOM      6  CD1 TYR A   1     -34.170   7.133 191.590  0.00  0.00    -0.001 A 
ENDROOT
BRANCH   4   7
ATOM      7  OH  TYR A   1     -31.055   5.784 192.859  0.00  0.00    -0.506 OA
ATOM      8  HH  TYR A   1     -30.564   6.204 192.109  0.00  0.00    +0.292 HD
ENDBRANCH   4   7
BRANCH   1   9
ATOM      9  CB  TYR A   1     -36.562   6.986 192.381  0.00  0.00    +0.051 C 
BRANCH   9  10
ATOM     10  CA  TYR A   1     -37.052   8.220 193.155  0.00  0.00    +0.137 C 
BRANCH  10  11
ATOM     11  N   TYR A   1     -36.739   9.459 192.444  0.00  0.00    -0.239 NA
ATOM     12  H   TYR A   1     -36.075   9.436 191.644  0.00  0.00    +0.142 HD
ENDBRANCH  10  11
BRANCH  10  13
ATOM     13  C   TYR A   1     -36.561   8.181 194.593  0.00  0.00    +0.224 C 
ATOM     14  O   TYR A   1     -37.051   7.378 195.382  0.00  0.00    -0.287 OA
ENDBRANCH  10  13
ENDBRANCH   9  10
ENDBRANCH   1   9
TORSDOF 5
REMARK  Name = ../refined-set-2016/3wmc/3wmc_pocket.pdb
REMARK  140 active torsions:
REMARK  status: ('A' for Active; 'I' for Inactive)
REMARK    1  A    between atoms: _1  and  _3
REMARK    2  A    between atoms: _3  and  _4
REMARK    3  A    between atoms: _3  and  _6
REMARK    4  A    between atoms: _6  and  _7
REMARK    5  A    between atoms: _10  and  _12
REMARK    6  A    between atoms: _12  and  _13
REMARK    7  A    between atoms: _12  and  _15
REMARK    8  A    between atoms: _15  and  _16
REMARK    9  A    between atoms: _16  and  _17
REMARK   10  A    between atoms: _17  and  _18
REMARK   11  A    between atoms: _27  and  _29
REMARK   12  A    between atoms: _29  and  _30
REMARK   13  A    between atoms: _29  and  _32
REMARK   14  A    between atoms: _32  and  _33
REMARK   15  A    between atoms: _38  and  _40
REMARK   16  A    between atoms: _40  and  _41
REMARK   17  A    between atoms: _40  and  _43
REMARK   18  A    between atoms: _43  and  _44
REMARK   19  A    between atoms: _47  and  _49
REMARK   20  A    between atoms: _49  and  _50
REMARK   21  A    between atoms: _49  and  _52
REMARK   22  A    between atoms: _52  and  _53
REMARK   23  A    between atoms: _53  and  _54
REMARK   24  A    between atoms: _57  and  _59
REMARK   25  A    between atoms: _59  and  _60
REMARK   26  A    between atoms: _59  and  _62
REMARK   27  A    between atoms: _62  and  _63
REMARK   28  A    between atoms: _66  and  _68
REMARK   29  A    between atoms: _68  and  _69
REMARK   30  A    between atoms: _68  and  _71
REMARK   31  A    between atoms: _71  and  _72
REMARK   32  A    between atoms: _77  and  _79
REMARK   33  A    between atoms: _79  and  _80
REMARK   34  A    between atoms: _79  and  _82
REMARK   35  A    between atoms: _82  and  _83
REMARK   36  A    between atoms: _93  and  _95
REMARK   37  A    between atoms: _95  and  _96
REMARK   38  A    between atoms: _95  and  _98
REMARK   39  A    between atoms: _101  and  _103
REMARK   40  A    between atoms: _103  and  _104
REMARK   41  A    between atoms: _103  and  _106
REMARK   42  A    between atoms: _106  and  _107
REMARK   43  A    between atoms: _107  and  _108
REMARK   44  A    between atoms: _111  and  _113
REMARK   45  A    between atoms: _113  and  _114
REMARK   46  A    between atoms: _113  and  _116
REMARK   47  A    between atoms: _116  and  _117
REMARK   48  A    between atoms: _122  and  _124
REMARK   49  A    between atoms: _124  and  _125
REMARK   50  A    between atoms: _127  and  _129
REMARK   51  A    between atoms: _129  and  _130
REMARK   52  A    between atoms: _132  and  _134
REMARK   53  A    between atoms: _134  and  _135
REMARK   54  A    between atoms: _134  and  _137
REMARK   55  A    between atoms: _137  and  _138
REMARK   56  A    between atoms: _141  and  _143
REMARK   57  A    between atoms: _143  and  _144
REMARK   58  A    between atoms: _143  and  _146
REMARK   59  A    between atoms: _146  and  _147
REMARK   60  A    between atoms: _147  and  _148
REMARK   61  A    between atoms: _151  and  _153
REMARK   62  A    between atoms: _153  and  _154
REMARK   63  A    between atoms: _153  and  _156
REMARK   64  A    between atoms: _156  and  _157
REMARK   65  A    between atoms: _160  and  _162
REMARK   66  A    between atoms: _162  and  _163
REMARK   67  A    between atoms: _162  and  _165
REMARK   68  A    between atoms: _165  and  _166
REMARK   69  A    between atoms: _176  and  _178
REMARK   70  A    between atoms: _178  and  _179
REMARK   71  A    between atoms: _178  and  _181
REMARK   72  A    between atoms: _181  and  _182
REMARK   73  A    between atoms: _185  and  _187
REMARK   74  A    between atoms: _187  and  _188
REMARK   75  A    between atoms: _187  and  _190
REMARK   76  A    between atoms: _190  and  _191
REMARK   77  A    between atoms: _191  and  _192
REMARK   78  A    between atoms: _197  and  _199
REMARK   79  A    between atoms: _199  and  _200
REMARK   80  A    between atoms: _199  and  _202
REMARK   81  A    between atoms: _205  and  _207
REMARK   82  A    between atoms: _207  and  _208
REMARK   83  A    between atoms: _207  and  _210
REMARK   84  A    between atoms: _210  and  _211
REMARK   85  A    between atoms: _221  and  _223
REMARK   86  A    between atoms: _223  and  _224
REMARK   87  A    between atoms: _223  and  _226
REMARK   88  A    between atoms: _226  and  _227
REMARK   89  A    between atoms: _230  and  _232
REMARK   90  A    between atoms: _232  and  _233
REMARK   91  A    between atoms: _232  and  _235
REMARK   92  A    between atoms: _235  and  _236
REMARK   93  A    between atoms: _239  and  _241
REMARK   94  A    between atoms: _241  and  _242
REMARK   95  A    between atoms: _241  and  _244
REMARK   96  A    between atoms: _244  and  _245
REMARK   97  A    between atoms: _247  and  _249
REMARK   98  A    between atoms: _249  and  _250
REMARK   99  A    between atoms: _249  and  _252
REMARK  100  A    between atoms: _252  and  _253
REMARK  101  A    between atoms: _258  and  _259
REMARK  102  A    between atoms: _261  and  _263
REMARK  103  A    between atoms: _263  and  _264
REMARK  104  A    between atoms: _263  and  _266
REMARK  105  A    between atoms: _266  and  _267
REMARK  106  A    between atoms: _272  and  _273
REMARK  107  A    between atoms: _275  and  _277
REMARK  108  A    between atoms: _277  and  _278
REMARK  109  A    between atoms: _277  and  _280
REMARK  110  A    between atoms: _280  and  _281
REMARK  111  A    between atoms: _284  and  _286
REMARK  112  A    between atoms: _286  and  _287
REMARK  113  A    between atoms: _286  and  _289
REMARK  114  A    between atoms: _289  and  _290
REMARK  115  A    between atoms: _300  and  _302
REMARK  116  A    between atoms: _302  and  _303
REMARK  117  A    between atoms: _302  and  _305
REMARK  118  A    between atoms: _305  and  _306
REMARK  119  A    between atoms: _311  and  _313
REMARK  120  A    between atoms: _313  and  _314
REMARK  121  A    between atoms: _313  and  _316
REMARK  122  A    between atoms: _316  and  _317
REMARK  123  A    between atoms: _327  and  _329
REMARK  124  A    between atoms: _329  and  _330
REMARK  125  A    between atoms: _329  and  _332
REMARK  126  A    between atoms: _334  and  _336
REMARK  127  A    between atoms: _336  and  _337
REMARK  128  A    between atoms: _336  and  _339
REMARK  129  A    between atoms: _339  and  _340
REMARK  130  A    between atoms: _342  and  _344
REMARK  131  A    between atoms: _344  and  _345
REMARK  132  A    between atoms: _348  and  _350
REMARK  133  A    between atoms: _350  and  _351
REMARK  134  A    between atoms: _350  and  _353
REMARK  135  A    between atoms: _353  and  _354
REMARK  136  A    between atoms: _364  and  _366
REMARK  137  A    between atoms: _366  and  _367
REMARK  138  A    between atoms: _366  and  _369
REMARK  139  A    between atoms: _369  and  _370
REMARK  140  A    between atoms: _370  and  _371
REMARK                            x       y       z     vdW  Elec       q    Type
REMARK                         _______ _______ _______ _____ _____    ______ ____
ROOT
ATOM      1  CG  TYR A   1     -40.147   6.019 192.822  0.00  0.00    -0.020 A 
ATOM      2  CD2 TYR A   1     -40.460   7.197 192.153  0.00  0.00    -0.001 A 
ATOM      3  CE2 TYR A   1     -40.364   7.284 190.786  0.00  0.00    +0.036 A 
ATOM      4  CZ  TYR A   1     -39.958   6.188 190.068  0.00  0.00    +0.134 A 
ATOM      5  CE1 TYR A   1     -39.639   5.000 190.695  0.00  0.00    +0.036 A 
ATOM      6  CD1 TYR A   1     -39.737   4.923 192.074  0.00  0.00    -0.001 A 
ENDROOT
BRANCH   4   7
ATOM      7  OH  TYR A   1     -39.883   6.299 188.711  0.00  0.00    -0.506 OA
ATOM      8  HH  TYR A   1     -39.579   5.439 188.327  0.00  0.00    +0.292 HD
ENDBRANCH   4   7
BRANCH   1   9
ATOM      9  CB  TYR A   1     -40.262   5.940 194.320  0.00  0.00    +0.051 C 
BRANCH   9  10
ATOM     10  CA  TYR A   1     -41.361   6.851 194.874  0.00  0.00    +0.137 C 
BRANCH  10  11
ATOM     11  N   TYR A   1     -40.843   8.184 195.181  0.00  0.00    -0.239 NA
ATOM     12  H   TYR A   1     -39.874   8.296 195.543  0.00  0.00    +0.142 HD
ENDBRANCH  10  11
BRANCH  10  13
ATOM     13  C   TYR A   1     -41.997   6.246 196.114  0.00  0.00    +0.224 C 
ATOM     14  O   TYR A   1     -41.295   5.799 197.028  0.00  0.00    -0.287 OA
ENDBRANCH  10  13
ENDBRANCH   9  10
ENDBRANCH   1   9
TORSDOF 5
REMARK  Name = ../refined-set-2016/3wmc/3wmc_pocket.pdb
REMARK  140 active torsions:
REMARK  status: ('A' for Active; 'I' for Inactive)
REMARK    1  A    between atoms: _1  and  _3
REMARK    2  A    between atoms: _3  and  _4
REMARK    3  A    between atoms: _3  and  _6
REMARK    4  A    between atoms: _6  and  _7
REMARK    5  A    between atoms: _10  and  _12
REMARK    6  A    between atoms: _12  and  _13
REMARK    7  A    between atoms: _12  and  _15
REMARK    8  A    between atoms: _15  and  _16
REMARK    9  A    between atoms: _16  and  _17
REMARK   10  A    between atoms: _17  and  _18
REMARK   11  A    between atoms: _27  and  _29
REMARK   12  A    between atoms: _29  and  _30
REMARK   13  A    between atoms: _29  and  _32
REMARK   14  A    between atoms: _32  and  _33
REMARK   15  A    between atoms: _38  and  _40
REMARK   16  A    between atoms: _40  and  _41
REMARK   17  A    between atoms: _40  and  _43
REMARK   18  A    between atoms: _43  and  _44
REMARK   19  A    between atoms: _47  and  _49
REMARK   20  A    between atoms: _49  and  _50
REMARK   21  A    between atoms: _49  and  _52
REMARK   22  A    between atoms: _52  and  _53
REMARK   23  A    between atoms: _53  and  _54
REMARK   24  A    between atoms: _57  and  _59
REMARK   25  A    between atoms: _59  and  _60
REMARK   26  A    between atoms: _59  and  _62
REMARK   27  A    between atoms: _62  and  _63
REMARK   28  A    between atoms: _66  and  _68
REMARK   29  A    between atoms: _68  and  _69
REMARK   30  A    between atoms: _68  and  _71
REMARK   31  A    between atoms: _71  and  _72
REMARK   32  A    between atoms: _77  and  _79
REMARK   33  A    between atoms: _79  and  _80
REMARK   34  A    between atoms: _79  and  _82
REMARK   35  A    between atoms: _82  and  _83
REMARK   36  A    between atoms: _93  and  _95
REMARK   37  A    between atoms: _95  and  _96
REMARK   38  A    between atoms: _95  and  _98
REMARK   39  A    between atoms: _101  and  _103
REMARK   40  A    between atoms: _103  and  _104
REMARK   41  A    between atoms: _103  and  _106
REMARK   42  A    between atoms: _106  and  _107
REMARK   43  A    between atoms: _107  and  _108
REMARK   44  A    between atoms: _111  and  _113
REMARK   45  A    between atoms: _113  and  _114
REMARK   46  A    between atoms: _113  and  _116
REMARK   47  A    between atoms: _116  and  _117
REMARK   48  A    between atoms: _122  and  _124
REMARK   49  A    between atoms: _124  and  _125
REMARK   50  A    between atoms: _127  and  _129
REMARK   51  A    between atoms: _129  and  _130
REMARK   52  A    between atoms: _132  and  _134
REMARK   53  A    between atoms: _134  and  _135
REMARK   54  A    between atoms: _134  and  _137
REMARK   55  A    between atoms: _137  and  _138
REMARK   56  A    between atoms: _141  and  _143
REMARK   57  A    between atoms: _143  and  _144
REMARK   58  A    between atoms: _143  and  _146
REMARK   59  A    between atoms: _146  and  _147
REMARK   60  A    between atoms: _147  and  _148
REMARK   61  A    between atoms: _151  and  _153
REMARK   62  A    between atoms: _153  and  _154
REMARK   63  A    between atoms: _153  and  _156
REMARK   64  A    between atoms: _156  and  _157
REMARK   65  A    between atoms: _160  and  _162
REMARK   66  A    between atoms: _162  and  _163
REMARK   67  A    between atoms: _162  and  _165
REMARK   68  A    between atoms: _165  and  _166
REMARK   69  A    between atoms: _176  and  _178
REMARK   70  A    between atoms: _178  and  _179
REMARK   71  A    between atoms: _178  and  _181
REMARK   72  A    between atoms: _181  and  _182
REMARK   73  A    between atoms: _185  and  _187
REMARK   74  A    between atoms: _187  and  _188
REMARK   75  A    between atoms: _187  and  _190
REMARK   76  A    between atoms: _190  and  _191
REMARK   77  A    between atoms: _191  and  _192
REMARK   78  A    between atoms: _197  and  _199
REMARK   79  A    between atoms: _199  and  _200
REMARK   80  A    between atoms: _199  and  _202
REMARK   81  A    between atoms: _205  and  _207
REMARK   82  A    between atoms: _207  and  _208
REMARK   83  A    between atoms: _207  and  _210
REMARK   84  A    between atoms: _210  and  _211
REMARK   85  A    between atoms: _221  and  _223
REMARK   86  A    between atoms: _223  and  _224
REMARK   87  A    between atoms: _223  and  _226
REMARK   88  A    between atoms: _226  and  _227
REMARK   89  A    between atoms: _230  and  _232
REMARK   90  A    between atoms: _232  and  _233
REMARK   91  A    between atoms: _232  and  _235
REMARK   92  A    between atoms: _235  and  _236
REMARK   93  A    between atoms: _239  and  _241
REMARK   94  A    between atoms: _241  and  _242
REMARK   95  A    between atoms: _241  and  _244
REMARK   96  A    between atoms: _244  and  _245
REMARK   97  A    between atoms: _247  and  _249
REMARK   98  A    between atoms: _249  and  _250
REMARK   99  A    between atoms: _249  and  _252
REMARK  100  A    between atoms: _252  and  _253
REMARK  101  A    between atoms: _258  and  _259
REMARK  102  A    between atoms: _261  and  _263
REMARK  103  A    between atoms: _263  and  _264
REMARK  104  A    between atoms: _263  and  _266
REMARK  105  A    between atoms: _266  and  _267
REMARK  106  A    between atoms: _272  and  _273
REMARK  107  A    between atoms: _275  and  _277
REMARK  108  A    between atoms: _277  and  _278
REMARK  109  A    between atoms: _277  and  _280
REMARK  110  A    between atoms: _280  and  _281
REMARK  111  A    between atoms: _284  and  _286
REMARK  112  A    between atoms: _286  and  _287
REMARK  113  A    between atoms: _286  and  _289
REMARK  114  A    between atoms: _289  and  _290
REMARK  115  A    between atoms: _300  and  _302
REMARK  116  A    between atoms: _302  and  _303
REMARK  117  A    between atoms: _302  and  _305
REMARK  118  A    between atoms: _305  and  _306
REMARK  119  A    between atoms: _311  and  _313
REMARK  120  A    between atoms: _313  and  _314
REMARK  121  A    between atoms: _313  and  _316
REMARK  122  A    between atoms: _316  and  _317
REMARK  123  A    between atoms: _327  and  _329
REMARK  124  A    between atoms: _329  and  _330
REMARK  125  A    between atoms: _329  and  _332
REMARK  126  A    between atoms: _334  and  _336
REMARK  127  A    between atoms: _336  and  _337
REMARK  128  A    between atoms: _336  and  _339
REMARK  129  A    between atoms: _339  and  _340
REMARK  130  A    between atoms: _342  and  _344
REMARK  131  A    between atoms: _344  and  _345
REMARK  132  A    between atoms: _348  and  _350
REMARK  133  A    between atoms: _350  and  _351
REMARK  134  A    between atoms: _350  and  _353
REMARK  135  A    between atoms: _353  and  _354
REMARK  136  A    between atoms: _364  and  _366
REMARK  137  A    between atoms: _366  and  _367
REMARK  138  A    between atoms: _366  and  _369
REMARK  139  A    between atoms: _369  and  _370
REMARK  140  A    between atoms: _370  and  _371
REMARK                            x       y       z     vdW  Elec       q    Type
REMARK                         _______ _______ _______ _____ _____    ______ ____
ROOT
ATOM      1  CA  ASP A   1     -43.665   2.112 196.589  0.00  0.00    +0.144 C 
ENDROOT
BRANCH   1   2
ATOM      2  N   ASP A   1     -43.651   3.574 196.517  0.00  0.00    -0.239 NA
ATOM      3  H   ASP A   1     -43.229   4.039 195.688  0.00  0.00    +0.142 HD
ENDBRANCH   1   2
BRANCH   1   4
ATOM      4  C   ASP A   1     -42.446   1.541 197.321  0.00  0.00    +0.225 C 
ATOM      5  O   ASP A   1     -42.472   0.386 197.749  0.00  0.00    -0.287 OA
ENDBRANCH   1   4
BRANCH   1   6
ATOM      6  CB  ASP A   1     -43.767   1.495 195.180  0.00  0.00    +0.139 C 
BRANCH   6   7
ATOM      7  CG  ASP A   1     -42.685   1.998 194.235  0.00  0.00    +0.367 C 
ATOM      8  OD2 ASP A   1     -42.338   3.195 194.304  0.00  0.00    -0.246 OA
ATOM      9  OD1 ASP A   1     -42.177   1.200 193.409  0.00  0.00    -0.246 OA
ENDBRANCH   6   7
ENDBRANCH   1   6
TORSDOF 4
REMARK  Name = ../refined-set-2016/3wmc/3wmc_pocket.pdb
REMARK  140 active torsions:
REMARK  status: ('A' for Active; 'I' for Inactive)
REMARK    1  A    between atoms: _1  and  _3
REMARK    2  A    between atoms: _3  and  _4
REMARK    3  A    between atoms: _3  and  _6
REMARK    4  A    between atoms: _6  and  _7
REMARK    5  A    between atoms: _10  and  _12
REMARK    6  A    between atoms: _12  and  _13
REMARK    7  A    between atoms: _12  and  _15
REMARK    8  A    between atoms: _15  and  _16
REMARK    9  A    between atoms: _16  and  _17
REMARK   10  A    between atoms: _17  and  _18
REMARK   11  A    between atoms: _27  and  _29
REMARK   12  A    between atoms: _29  and  _30
REMARK   13  A    between atoms: _29  and  _32
REMARK   14  A    between atoms: _32  and  _33
REMARK   15  A    between atoms: _38  and  _40
REMARK   16  A    between atoms: _40  and  _41
REMARK   17  A    between atoms: _40  and  _43
REMARK   18  A    between atoms: _43  and  _44
REMARK   19  A    between atoms: _47  and  _49
REMARK   20  A    between atoms: _49  and  _50
REMARK   21  A    between atoms: _49  and  _52
REMARK   22  A    between atoms: _52  and  _53
REMARK   23  A    between atoms: _53  and  _54
REMARK   24  A    between atoms: _57  and  _59
REMARK   25  A    between atoms: _59  and  _60
REMARK   26  A    between atoms: _59  and  _62
REMARK   27  A    between atoms: _62  and  _63
REMARK   28  A    between atoms: _66  and  _68
REMARK   29  A    between atoms: _68  and  _69
REMARK   30  A    between atoms: _68  and  _71
REMARK   31  A    between atoms: _71  and  _72
REMARK   32  A    between atoms: _77  and  _79
REMARK   33  A    between atoms: _79  and  _80
REMARK   34  A    between atoms: _79  and  _82
REMARK   35  A    between atoms: _82  and  _83
REMARK   36  A    between atoms: _93  and  _95
REMARK   37  A    between atoms: _95  and  _96
REMARK   38  A    between atoms: _95  and  _98
REMARK   39  A    between atoms: _101  and  _103
REMARK   40  A    between atoms: _103  and  _104
REMARK   41  A    between atoms: _103  and  _106
REMARK   42  A    between atoms: _106  and  _107
REMARK   43  A    between atoms: _107  and  _108
REMARK   44  A    between atoms: _111  and  _113
REMARK   45  A    between atoms: _113  and  _114
REMARK   46  A    between atoms: _113  and  _116
REMARK   47  A    between atoms: _116  and  _117
REMARK   48  A    between atoms: _122  and  _124
REMARK   49  A    between atoms: _124  and  _125
REMARK   50  A    between atoms: _127  and  _129
REMARK   51  A    between atoms: _129  and  _130
REMARK   52  A    between atoms: _132  and  _134
REMARK   53  A    between atoms: _134  and  _135
REMARK   54  A    between atoms: _134  and  _137
REMARK   55  A    between atoms: _137  and  _138
REMARK   56  A    between atoms: _141  and  _143
REMARK   57  A    between atoms: _143  and  _144
REMARK   58  A    between atoms: _143  and  _146
REMARK   59  A    between atoms: _146  and  _147
REMARK   60  A    between atoms: _147  and  _148
REMARK   61  A    between atoms: _151  and  _153
REMARK   62  A    between atoms: _153  and  _154
REMARK   63  A    between atoms: _153  and  _156
REMARK   64  A    between atoms: _156  and  _157
REMARK   65  A    between atoms: _160  and  _162
REMARK   66  A    between atoms: _162  and  _163
REMARK   67  A    between atoms: _162  and  _165
REMARK   68  A    between atoms: _165  and  _166
REMARK   69  A    between atoms: _176  and  _178
REMARK   70  A    between atoms: _178  and  _179
REMARK   71  A    between atoms: _178  and  _181
REMARK   72  A    between atoms: _181  and  _182
REMARK   73  A    between atoms: _185  and  _187
REMARK   74  A    between atoms: _187  and  _188
REMARK   75  A    between atoms: _187  and  _190
REMARK   76  A    between atoms: _190  and  _191
REMARK   77  A    between atoms: _191  and  _192
REMARK   78  A    between atoms: _197  and  _199
REMARK   79  A    between atoms: _199  and  _200
REMARK   80  A    between atoms: _199  and  _202
REMARK   81  A    between atoms: _205  and  _207
REMARK   82  A    between atoms: _207  and  _208
REMARK   83  A    between atoms: _207  and  _210
REMARK   84  A    between atoms: _210  and  _211
REMARK   85  A    between atoms: _221  and  _223
REMARK   86  A    between atoms: _223  and  _224
REMARK   87  A    between atoms: _223  and  _226
REMARK   88  A    between atoms: _226  and  _227
REMARK   89  A    between atoms: _230  and  _232
REMARK   90  A    between atoms: _232  and  _233
REMARK   91  A    between atoms: _232  and  _235
REMARK   92  A    between atoms: _235  and  _236
REMARK   93  A    between atoms: _239  and  _241
REMARK   94  A    between atoms: _241  and  _242
REMARK   95  A    between atoms: _241  and  _244
REMARK   96  A    between atoms: _244  and  _245
REMARK   97  A    between atoms: _247  and  _249
REMARK   98  A    between atoms: _249  and  _250
REMARK   99  A    between atoms: _249  and  _252
REMARK  100  A    between atoms: _252  and  _253
REMARK  101  A    between atoms: _258  and  _259
REMARK  102  A    between atoms: _261  and  _263
REMARK  103  A    between atoms: _263  and  _264
REMARK  104  A    between atoms: _263  and  _266
REMARK  105  A    between atoms: _266  and  _267
REMARK  106  A    between atoms: _272  and  _273
REMARK  107  A    between atoms: _275  and  _277
REMARK  108  A    between atoms: _277  and  _278
REMARK  109  A    between atoms: _277  and  _280
REMARK  110  A    between atoms: _280  and  _281
REMARK  111  A    between atoms: _284  and  _286
REMARK  112  A    between atoms: _286  and  _287
REMARK  113  A    between atoms: _286  and  _289
REMARK  114  A    between atoms: _289  and  _290
REMARK  115  A    between atoms: _300  and  _302
REMARK  116  A    between atoms: _302  and  _303
REMARK  117  A    between atoms: _302  and  _305
REMARK  118  A    between atoms: _305  and  _306
REMARK  119  A    between atoms: _311  and  _313
REMARK  120  A    between atoms: _313  and  _314
REMARK  121  A    between atoms: _313  and  _316
REMARK  122  A    between atoms: _316  and  _317
REMARK  123  A    between atoms: _327  and  _329
REMARK  124  A    between atoms: _329  and  _330
REMARK  125  A    between atoms: _329  and  _332
REMARK  126  A    between atoms: _334  and  _336
REMARK  127  A    between atoms: _336  and  _337
REMARK  128  A    between atoms: _336  and  _339
REMARK  129  A    between atoms: _339  and  _340
REMARK  130  A    between atoms: _342  and  _344
REMARK  131  A    between atoms: _344  and  _345
REMARK  132  A    between atoms: _348  and  _350
REMARK  133  A    between atoms: _350  and  _351
REMARK  134  A    between atoms: _350  and  _353
REMARK  135  A    between atoms: _353  and  _354
REMARK  136  A    between atoms: _364  and  _366
REMARK  137  A    between atoms: _366  and  _367
REMARK  138  A    between atoms: _366  and  _369
REMARK  139  A    between atoms: _369  and  _370
REMARK  140  A    between atoms: _370  and  _371
REMARK                            x       y       z     vdW  Elec       q    Type
REMARK                         _______ _______ _______ _____ _____    ______ ____
ROOT
ATOM      1  CG  TRP A   1     -42.058  -7.512 193.342  0.00  0.00    -0.002 A 
ATOM      2  CD1 TRP A   1     -41.507  -6.267 193.345  0.00  0.00    +0.068 A 
ATOM      3  NE1 TRP A   1     -41.229  -5.866 192.061  0.00  0.00    -0.352 N 
ATOM      4  HE1 TRP A   1     -40.792  -4.961 191.792  0.00  0.00    +0.166 HD
ATOM      5  CE2 TRP A   1     -41.620  -6.851 191.193  0.00  0.00    +0.056 A 
ATOM      6  CZ2 TRP A   1     -41.545  -6.907 189.795  0.00  0.00    +0.017 A 
ATOM      7  CH2 TRP A   1     -42.016  -8.041 189.183  0.00  0.00    +0.001 A 
ATOM      8  CZ3 TRP A   1     -42.554  -9.102 189.924  0.00  0.00    +0.000 A 
ATOM      9  CE3 TRP A   1     -42.623  -9.047 191.312  0.00  0.00    +0.001 A 
ATOM     10  CD2 TRP A   1     -42.148  -7.905 191.964  0.00  0.00    +0.013 A 
ENDROOT
BRANCH   1  11
ATOM     11  CB  TRP A   1     -42.533  -8.294 194.537  0.00  0.00    +0.053 C 
BRANCH  11  12
ATOM     12  CA  TRP A   1     -41.492  -9.196 195.212  0.00  0.00    +0.137 C 
BRANCH  12  13
ATOM     13  N   TRP A   1     -40.416  -8.429 195.841  0.00  0.00    -0.239 NA
ATOM     14  H   TRP A   1     -39.897  -7.714 195.293  0.00  0.00    +0.142 HD
ENDBRANCH  12  13
BRANCH  12  15
ATOM     15  C   TRP A   1     -40.944 -10.258 194.260  0.00  0.00    +0.224 C 
ATOM     16  O   TRP A   1     -41.668 -11.166 193.845  0.00  0.00    -0.287 OA
ENDBRANCH  12  15
ENDBRANCH  11  12
ENDBRANCH   1  11
TORSDOF 4
REMARK  Name = ../refined-set-2016/3wmc/3wmc_pocket.pdb
REMARK  140 active torsions:
REMARK  status: ('A' for Active; 'I' for Inactive)
REMARK    1  A    between atoms: _1  and  _3
REMARK    2  A    between atoms: _3  and  _4
REMARK    3  A    between atoms: _3  and  _6
REMARK    4  A    between atoms: _6  and  _7
REMARK    5  A    between atoms: _10  and  _12
REMARK    6  A    between atoms: _12  and  _13
REMARK    7  A    between atoms: _12  and  _15
REMARK    8  A    between atoms: _15  and  _16
REMARK    9  A    between atoms: _16  and  _17
REMARK   10  A    between atoms: _17  and  _18
REMARK   11  A    between atoms: _27  and  _29
REMARK   12  A    between atoms: _29  and  _30
REMARK   13  A    between atoms: _29  and  _32
REMARK   14  A    between atoms: _32  and  _33
REMARK   15  A    between atoms: _38  and  _40
REMARK   16  A    between atoms: _40  and  _41
REMARK   17  A    between atoms: _40  and  _43
REMARK   18  A    between atoms: _43  and  _44
REMARK   19  A    between atoms: _47  and  _49
REMARK   20  A    between atoms: _49  and  _50
REMARK   21  A    between atoms: _49  and  _52
REMARK   22  A    between atoms: _52  and  _53
REMARK   23  A    between atoms: _53  and  _54
REMARK   24  A    between atoms: _57  and  _59
REMARK   25  A    between atoms: _59  and  _60
REMARK   26  A    between atoms: _59  and  _62
REMARK   27  A    between atoms: _62  and  _63
REMARK   28  A    between atoms: _66  and  _68
REMARK   29  A    between atoms: _68  and  _69
REMARK   30  A    between atoms: _68  and  _71
REMARK   31  A    between atoms: _71  and  _72
REMARK   32  A    between atoms: _77  and  _79
REMARK   33  A    between atoms: _79  and  _80
REMARK   34  A    between atoms: _79  and  _82
REMARK   35  A    between atoms: _82  and  _83
REMARK   36  A    between atoms: _93  and  _95
REMARK   37  A    between atoms: _95  and  _96
REMARK   38  A    between atoms: _95  and  _98
REMARK   39  A    between atoms: _101  and  _103
REMARK   40  A    between atoms: _103  and  _104
REMARK   41  A    between atoms: _103  and  _106
REMARK   42  A    between atoms: _106  and  _107
REMARK   43  A    between atoms: _107  and  _108
REMARK   44  A    between atoms: _111  and  _113
REMARK   45  A    between atoms: _113  and  _114
REMARK   46  A    between atoms: _113  and  _116
REMARK   47  A    between atoms: _116  and  _117
REMARK   48  A    between atoms: _122  and  _124
REMARK   49  A    between atoms: _124  and  _125
REMARK   50  A    between atoms: _127  and  _129
REMARK   51  A    between atoms: _129  and  _130
REMARK   52  A    between atoms: _132  and  _134
REMARK   53  A    between atoms: _134  and  _135
REMARK   54  A    between atoms: _134  and  _137
REMARK   55  A    between atoms: _137  and  _138
REMARK   56  A    between atoms: _141  and  _143
REMARK   57  A    between atoms: _143  and  _144
REMARK   58  A    between atoms: _143  and  _146
REMARK   59  A    between atoms: _146  and  _147
REMARK   60  A    between atoms: _147  and  _148
REMARK   61  A    between atoms: _151  and  _153
REMARK   62  A    between atoms: _153  and  _154
REMARK   63  A    between atoms: _153  and  _156
REMARK   64  A    between atoms: _156  and  _157
REMARK   65  A    between atoms: _160  and  _162
REMARK   66  A    between atoms: _162  and  _163
REMARK   67  A    between atoms: _162  and  _165
REMARK   68  A    between atoms: _165  and  _166
REMARK   69  A    between atoms: _176  and  _178
REMARK   70  A    between atoms: _178  and  _179
REMARK   71  A    between atoms: _178  and  _181
REMARK   72  A    between atoms: _181  and  _182
REMARK   73  A    between atoms: _185  and  _187
REMARK   74  A    between atoms: _187  and  _188
REMARK   75  A    between atoms: _187  and  _190
REMARK   76  A    between atoms: _190  and  _191
REMARK   77  A    between atoms: _191  and  _192
REMARK   78  A    between atoms: _197  and  _199
REMARK   79  A    between atoms: _199  and  _200
REMARK   80  A    between atoms: _199  and  _202
REMARK   81  A    between atoms: _205  and  _207
REMARK   82  A    between atoms: _207  and  _208
REMARK   83  A    between atoms: _207  and  _210
REMARK   84  A    between atoms: _210  and  _211
REMARK   85  A    between atoms: _221  and  _223
REMARK   86  A    between atoms: _223  and  _224
REMARK   87  A    between atoms: _223  and  _226
REMARK   88  A    between atoms: _226  and  _227
REMARK   89  A    between atoms: _230  and  _232
REMARK   90  A    between atoms: _232  and  _233
REMARK   91  A    between atoms: _232  and  _235
REMARK   92  A    between atoms: _235  and  _236
REMARK   93  A    between atoms: _239  and  _241
REMARK   94  A    between atoms: _241  and  _242
REMARK   95  A    between atoms: _241  and  _244
REMARK   96  A    between atoms: _244  and  _245
REMARK   97  A    between atoms: _247  and  _249
REMARK   98  A    between atoms: _249  and  _250
REMARK   99  A    between atoms: _249  and  _252
REMARK  100  A    between atoms: _252  and  _253
REMARK  101  A    between atoms: _258  and  _259
REMARK  102  A    between atoms: _261  and  _263
REMARK  103  A    between atoms: _263  and  _264
REMARK  104  A    between atoms: _263  and  _266
REMARK  105  A    between atoms: _266  and  _267
REMARK  106  A    between atoms: _272  and  _273
REMARK  107  A    between atoms: _275  and  _277
REMARK  108  A    between atoms: _277  and  _278
REMARK  109  A    between atoms: _277  and  _280
REMARK  110  A    between atoms: _280  and  _281
REMARK  111  A    between atoms: _284  and  _286
REMARK  112  A    between atoms: _286  and  _287
REMARK  113  A    between atoms: _286  and  _289
REMARK  114  A    between atoms: _289  and  _290
REMARK  115  A    between atoms: _300  and  _302
REMARK  116  A    between atoms: _302  and  _303
REMARK  117  A    between atoms: _302  and  _305
REMARK  118  A    between atoms: _305  and  _306
REMARK  119  A    between atoms: _311  and  _313
REMARK  120  A    between atoms: _313  and  _314
REMARK  121  A    between atoms: _313  and  _316
REMARK  122  A    between atoms: _316  and  _317
REMARK  123  A    between atoms: _327  and  _329
REMARK  124  A    between atoms: _329  and  _330
REMARK  125  A    between atoms: _329  and  _332
REMARK  126  A    between atoms: _334  and  _336
REMARK  127  A    between atoms: _336  and  _337
REMARK  128  A    between atoms: _336  and  _339
REMARK  129  A    between atoms: _339  and  _340
REMARK  130  A    between atoms: _342  and  _344
REMARK  131  A    between atoms: _344  and  _345
REMARK  132  A    between atoms: _348  and  _350
REMARK  133  A    between atoms: _350  and  _351
REMARK  134  A    between atoms: _350  and  _353
REMARK  135  A    between atoms: _353  and  _354
REMARK  136  A    between atoms: _364  and  _366
REMARK  137  A    between atoms: _366  and  _367
REMARK  138  A    between atoms: _366  and  _369
REMARK  139  A    between atoms: _369  and  _370
REMARK  140  A    between atoms: _370  and  _371
REMARK                            x       y       z     vdW  Elec       q    Type
REMARK                         _______ _______ _______ _____ _____    ______ ____
ROOT
ATOM      1  CA  TRP A   2     -35.247  -2.111 194.744  0.00  0.00    +0.153 C 
ENDROOT
BRANCH   1   4
ATOM      2  C   ASN A   1     -36.590  -2.929 196.633  0.00  0.00    +0.239 C 
ATOM      3  O   ASN A   1     -35.922  -2.335 197.488  0.00  0.00    -0.274 OA
ATOM      4  N   TRP A   2     -36.442  -2.738 195.322  0.00  0.00    -0.297 N 
ATOM      5  H   TRP A   2     -37.203  -3.045 194.683  0.00  0.00    +0.150 HD
BRANCH   2   6
ATOM      6  CA  ASN A   1     -37.666  -3.935 197.056  0.00  0.00    +0.154 C 
BRANCH   6   7
ATOM      7  N   ASN A   1     -37.559  -4.341 198.459  0.00  0.00    -0.238 NA
ATOM      8  H   ASN A   1     -38.272  -4.034 199.152  0.00  0.00    +0.142 HD
ENDBRANCH   6   7
BRANCH   6   9
ATOM      9  CB  ASN A   1     -39.091  -3.484 196.687  0.00  0.00    +0.111 C 
BRANCH   9  10
ATOM     10  CG  ASN A   1     -39.516  -2.201 197.382  0.00  0.00    +0.221 C 
ATOM     11  OD1 ASN A   1     -38.694  -1.339 197.708  0.00  0.00    -0.275 OA
ATOM     12  ND2 ASN A   1     -40.825  -2.057 197.587  0.00  0.00    -0.329 N 
ATOM     13 HD21 ASN A   1     -41.189  -1.193 198.037  0.00  0.00    +0.145 HD
ATOM     14 HD22 ASN A   1     -41.483  -2.809 197.297  0.00  0.00    +0.145 HD
ENDBRANCH   9  10
ENDBRANCH   6   9
ENDBRANCH   2   6
ENDBRANCH   1   4
BRANCH   1  15
ATOM     15  C   TRP A   2     -34.878  -0.729 195.274  0.00  0.00    +0.241 C 
ATOM     16  N   CYS A   3     -35.872   0.100 195.577  0.00  0.00    -0.296 N 
ATOM     17  H   CYS A   3     -36.856  -0.234 195.539  0.00  0.00    +0.150 HD
ATOM     18  O   TRP A   2     -33.696  -0.417 195.392  0.00  0.00    -0.273 OA
BRANCH  16  19
ATOM     19  CA  CYS A   3     -35.585   1.481 195.963  0.00  0.00    +0.160 C 
BRANCH  19  20
ATOM     20  C   CYS A   3     -35.761   1.758 197.457  0.00  0.00    +0.242 C 
ATOM     21  N   SER A   4     -35.753   0.695 198.258  0.00  0.00    -0.296 N 
ATOM     22  H   SER A   4     -35.772  -0.256 197.836  0.00  0.00    +0.150 HD
ATOM     23  O   CYS A   3     -35.889   2.916 197.870  0.00  0.00    -0.273 OA
BRANCH  21  24
ATOM     24  CA  SER A   4     -35.718   0.826 199.714  0.00  0.00    +0.166 C 
BRANCH  24  25
ATOM     25  CB  SER A   4     -34.532   1.703 200.120  0.00  0.00    +0.229 C 
ATOM     26  OG  SER A   4     -33.539   1.768 199.396  0.00  0.00    -0.286 OA
ENDBRANCH  24  25
BRANCH  24  27
ATOM     27  C   SER A   4     -35.605  -0.557 200.362  0.00  0.00    +0.165 C 
BRANCH  27  28
ATOM     28  O   SER A   4     -36.707  -1.376 199.995  0.00  0.00    -0.380 OA
ATOM     29  H   SER A   4     -36.723  -1.484 199.011  0.00  0.00    +0.211 HD
ENDBRANCH  27  28
ENDBRANCH  24  27
ENDBRANCH  21  24
ENDBRANCH  19  20
BRANCH  19  30
ATOM     30  CB  CYS A   3     -36.399   2.468 195.119  0.00  0.00    +0.098 C 
ATOM     31  SG  CYS A   3     -38.198   2.243 195.172  0.00  0.00    -0.080 S 
ENDBRANCH  19  30
ENDBRANCH  16  19
ENDBRANCH   1  15
BRANCH   1  32
ATOM     32  CB  TRP A   2     -35.342  -2.071 193.207  0.00  0.00    +0.057 C 
BRANCH  32  33
ATOM     33  CG  TRP A   2     -36.189  -0.949 192.671  0.00  0.00    -0.002 A 
ATOM     34  CD1 TRP A   2     -37.530  -0.983 192.409  0.00  0.00    +0.068 A 
ATOM     35  NE1 TRP A   2     -37.947   0.235 191.923  0.00  0.00    -0.352 N 
ATOM     36  CE2 TRP A   2     -36.871   1.083 191.863  0.00  0.00    +0.056 A 
ATOM     37  CZ2 TRP A   2     -36.793   2.409 191.436  0.00  0.00    +0.017 A 
ATOM     38  CH2 TRP A   2     -35.566   3.016 191.480  0.00  0.00    +0.001 A 
ATOM     39  CZ3 TRP A   2     -34.432   2.335 191.937  0.00  0.00    +0.000 A 
ATOM     40  CE3 TRP A   2     -34.508   1.020 192.358  0.00  0.00    +0.001 A 
ATOM     41  HE1 TRP A   2     -38.921   0.474 191.646  0.00  0.00    +0.166 HD
ATOM     42  CD2 TRP A   2     -35.746   0.371 192.320  0.00  0.00    +0.013 A 
ENDBRANCH  32  33
ENDBRANCH   1  32
TORSDOF 15
REMARK  Name = ../refined-set-2016/3wmc/3wmc_pocket.pdb
REMARK  140 active torsions:
REMARK  status: ('A' for Active; 'I' for Inactive)
REMARK    1  A    between atoms: _1  and  _3
REMARK    2  A    between atoms: _3  and  _4
REMARK    3  A    between atoms: _3  and  _6
REMARK    4  A    between atoms: _6  and  _7
REMARK    5  A    between atoms: _10  and  _12
REMARK    6  A    between atoms: _12  and  _13
REMARK    7  A    between atoms: _12  and  _15
REMARK    8  A    between atoms: _15  and  _16
REMARK    9  A    between atoms: _16  and  _17
REMARK   10  A    between atoms: _17  and  _18
REMARK   11  A    between atoms: _27  and  _29
REMARK   12  A    between atoms: _29  and  _30
REMARK   13  A    between atoms: _29  and  _32
REMARK   14  A    between atoms: _32  and  _33
REMARK   15  A    between atoms: _38  and  _40
REMARK   16  A    between atoms: _40  and  _41
REMARK   17  A    between atoms: _40  and  _43
REMARK   18  A    between atoms: _43  and  _44
REMARK   19  A    between atoms: _47  and  _49
REMARK   20  A    between atoms: _49  and  _50
REMARK   21  A    between atoms: _49  and  _52
REMARK   22  A    between atoms: _52  and  _53
REMARK   23  A    between atoms: _53  and  _54
REMARK   24  A    between atoms: _57  and  _59
REMARK   25  A    between atoms: _59  and  _60
REMARK   26  A    between atoms: _59  and  _62
REMARK   27  A    between atoms: _62  and  _63
REMARK   28  A    between atoms: _66  and  _68
REMARK   29  A    between atoms: _68  and  _69
REMARK   30  A    between atoms: _68  and  _71
REMARK   31  A    between atoms: _71  and  _72
REMARK   32  A    between atoms: _77  and  _79
REMARK   33  A    between atoms: _79  and  _80
REMARK   34  A    between atoms: _79  and  _82
REMARK   35  A    between atoms: _82  and  _83
REMARK   36  A    between atoms: _93  and  _95
REMARK   37  A    between atoms: _95  and  _96
REMARK   38  A    between atoms: _95  and  _98
REMARK   39  A    between atoms: _101  and  _103
REMARK   40  A    between atoms: _103  and  _104
REMARK   41  A    between atoms: _103  and  _106
REMARK   42  A    between atoms: _106  and  _107
REMARK   43  A    between atoms: _107  and  _108
REMARK   44  A    between atoms: _111  and  _113
REMARK   45  A    between atoms: _113  and  _114
REMARK   46  A    between atoms: _113  and  _116
REMARK   47  A    between atoms: _116  and  _117
REMARK   48  A    between atoms: _122  and  _124
REMARK   49  A    between atoms: _124  and  _125
REMARK   50  A    between atoms: _127  and  _129
REMARK   51  A    between atoms: _129  and  _130
REMARK   52  A    between atoms: _132  and  _134
REMARK   53  A    between atoms: _134  and  _135
REMARK   54  A    between atoms: _134  and  _137
REMARK   55  A    between atoms: _137  and  _138
REMARK   56  A    between atoms: _141  and  _143
REMARK   57  A    between atoms: _143  and  _144
REMARK   58  A    between atoms: _143  and  _146
REMARK   59  A    between atoms: _146  and  _147
REMARK   60  A    between atoms: _147  and  _148
REMARK   61  A    between atoms: _151  and  _153
REMARK   62  A    between atoms: _153  and  _154
REMARK   63  A    between atoms: _153  and  _156
REMARK   64  A    between atoms: _156  and  _157
REMARK   65  A    between atoms: _160  and  _162
REMARK   66  A    between atoms: _162  and  _163
REMARK   67  A    between atoms: _162  and  _165
REMARK   68  A    between atoms: _165  and  _166
REMARK   69  A    between atoms: _176  and  _178
REMARK   70  A    between atoms: _178  and  _179
REMARK   71  A    between atoms: _178  and  _181
REMARK   72  A    between atoms: _181  and  _182
REMARK   73  A    between atoms: _185  and  _187
REMARK   74  A    between atoms: _187  and  _188
REMARK   75  A    between atoms: _187  and  _190
REMARK   76  A    between atoms: _190  and  _191
REMARK   77  A    between atoms: _191  and  _192
REMARK   78  A    between atoms: _197  and  _199
REMARK   79  A    between atoms: _199  and  _200
REMARK   80  A    between atoms: _199  and  _202
REMARK   81  A    between atoms: _205  and  _207
REMARK   82  A    between atoms: _207  and  _208
REMARK   83  A    between atoms: _207  and  _210
REMARK   84  A    between atoms: _210  and  _211
REMARK   85  A    between atoms: _221  and  _223
REMARK   86  A    between atoms: _223  and  _224
REMARK   87  A    between atoms: _223  and  _226
REMARK   88  A    between atoms: _226  and  _227
REMARK   89  A    between atoms: _230  and  _232
REMARK   90  A    between atoms: _232  and  _233
REMARK   91  A    between atoms: _232  and  _235
REMARK   92  A    between atoms: _235  and  _236
REMARK   93  A    between atoms: _239  and  _241
REMARK   94  A    between atoms: _241  and  _242
REMARK   95  A    between atoms: _241  and  _244
REMARK   96  A    between atoms: _244  and  _245
REMARK   97  A    between atoms: _247  and  _249
REMARK   98  A    between atoms: _249  and  _250
REMARK   99  A    between atoms: _249  and  _252
REMARK  100  A    between atoms: _252  and  _253
REMARK  101  A    between atoms: _258  and  _259
REMARK  102  A    between atoms: _261  and  _263
REMARK  103  A    between atoms: _263  and  _264
REMARK  104  A    between atoms: _263  and  _266
REMARK  105  A    between atoms: _266  and  _267
REMARK  106  A    between atoms: _272  and  _273
REMARK  107  A    between atoms: _275  and  _277
REMARK  108  A    between atoms: _277  and  _278
REMARK  109  A    between atoms: _277  and  _280
REMARK  110  A    between atoms: _280  and  _281
REMARK  111  A    between atoms: _284  and  _286
REMARK  112  A    between atoms: _286  and  _287
REMARK  113  A    between atoms: _286  and  _289
REMARK  114  A    between atoms: _289  and  _290
REMARK  115  A    between atoms: _300  and  _302
REMARK  116  A    between atoms: _302  and  _303
REMARK  117  A    between atoms: _302  and  _305
REMARK  118  A    between atoms: _305  and  _306
REMARK  119  A    between atoms: _311  and  _313
REMARK  120  A    between atoms: _313  and  _314
REMARK  121  A    between atoms: _313  and  _316
REMARK  122  A    between atoms: _316  and  _317
REMARK  123  A    between atoms: _327  and  _329
REMARK  124  A    between atoms: _329  and  _330
REMARK  125  A    between atoms: _329  and  _332
REMARK  126  A    between atoms: _334  and  _336
REMARK  127  A    between atoms: _336  and  _337
REMARK  128  A    between atoms: _336  and  _339
REMARK  129  A    between atoms: _339  and  _340
REMARK  130  A    between atoms: _342  and  _344
REMARK  131  A    between atoms: _344  and  _345
REMARK  132  A    between atoms: _348  and  _350
REMARK  133  A    between atoms: _350  and  _351
REMARK  134  A    between atoms: _350  and  _353
REMARK  135  A    between atoms: _353  and  _354
REMARK  136  A    between atoms: _364  and  _366
REMARK  137  A    between atoms: _366  and  _367
REMARK  138  A    between atoms: _366  and  _369
REMARK  139  A    between atoms: _369  and  _370
REMARK  140  A    between atoms: _370  and  _371
REMARK                            x       y       z     vdW  Elec       q    Type
REMARK                         _______ _______ _______ _____ _____    ______ ____
ROOT
ATOM      1  CA  ALA A   1     -45.338   7.819 192.052  0.00  0.00    +0.133 C 
ATOM      2  CB  ALA A   1     -44.114   7.498 191.196  0.00  0.00    +0.027 C 
ENDROOT
BRANCH   1   3
ATOM      3  N   ALA A   1     -45.095   9.007 192.866  0.00  0.00    -0.239 NA
ATOM      4  H   ALA A   1     -44.196   9.106 193.380  0.00  0.00    +0.142 HD
ENDBRANCH   1   3
BRANCH   1   5
ATOM      5  C   ALA A   1     -45.712   6.619 192.903  0.00  0.00    +0.224 C 
ATOM      6  O   ALA A   1     -44.917   6.167 193.734  0.00  0.00    -0.287 OA
ENDBRANCH   1   5
TORSDOF 2
REMARK  Name = ../refined-set-2016/3wmc/3wmc_pocket.pdb
REMARK  140 active torsions:
REMARK  status: ('A' for Active; 'I' for Inactive)
REMARK    1  A    between atoms: _1  and  _3
REMARK    2  A    between atoms: _3  and  _4
REMARK    3  A    between atoms: _3  and  _6
REMARK    4  A    between atoms: _6  and  _7
REMARK    5  A    between atoms: _10  and  _12
REMARK    6  A    between atoms: _12  and  _13
REMARK    7  A    between atoms: _12  and  _15
REMARK    8  A    between atoms: _15  and  _16
REMARK    9  A    between atoms: _16  and  _17
REMARK   10  A    between atoms: _17  and  _18
REMARK   11  A    between atoms: _27  and  _29
REMARK   12  A    between atoms: _29  and  _30
REMARK   13  A    between atoms: _29  and  _32
REMARK   14  A    between atoms: _32  and  _33
REMARK   15  A    between atoms: _38  and  _40
REMARK   16  A    between atoms: _40  and  _41
REMARK   17  A    between atoms: _40  and  _43
REMARK   18  A    between atoms: _43  and  _44
REMARK   19  A    between atoms: _47  and  _49
REMARK   20  A    between atoms: _49  and  _50
REMARK   21  A    between atoms: _49  and  _52
REMARK   22  A    between atoms: _52  and  _53
REMARK   23  A    between atoms: _53  and  _54
REMARK   24  A    between atoms: _57  and  _59
REMARK   25  A    between atoms: _59  and  _60
REMARK   26  A    between atoms: _59  and  _62
REMARK   27  A    between atoms: _62  and  _63
REMARK   28  A    between atoms: _66  and  _68
REMARK   29  A    between atoms: _68  and  _69
REMARK   30  A    between atoms: _68  and  _71
REMARK   31  A    between atoms: _71  and  _72
REMARK   32  A    between atoms: _77  and  _79
REMARK   33  A    between atoms: _79  and  _80
REMARK   34  A    between atoms: _79  and  _82
REMARK   35  A    between atoms: _82  and  _83
REMARK   36  A    between atoms: _93  and  _95
REMARK   37  A    between atoms: _95  and  _96
REMARK   38  A    between atoms: _95  and  _98
REMARK   39  A    between atoms: _101  and  _103
REMARK   40  A    between atoms: _103  and  _104
REMARK   41  A    between atoms: _103  and  _106
REMARK   42  A    between atoms: _106  and  _107
REMARK   43  A    between atoms: _107  and  _108
REMARK   44  A    between atoms: _111  and  _113
REMARK   45  A    between atoms: _113  and  _114
REMARK   46  A    between atoms: _113  and  _116
REMARK   47  A    between atoms: _116  and  _117
REMARK   48  A    between atoms: _122  and  _124
REMARK   49  A    between atoms: _124  and  _125
REMARK   50  A    between atoms: _127  and  _129
REMARK   51  A    between atoms: _129  and  _130
REMARK   52  A    between atoms: _132  and  _134
REMARK   53  A    between atoms: _134  and  _135
REMARK   54  A    between atoms: _134  and  _137
REMARK   55  A    between atoms: _137  and  _138
REMARK   56  A    between atoms: _141  and  _143
REMARK   57  A    between atoms: _143  and  _144
REMARK   58  A    between atoms: _143  and  _146
REMARK   59  A    between atoms: _146  and  _147
REMARK   60  A    between atoms: _147  and  _148
REMARK   61  A    between atoms: _151  and  _153
REMARK   62  A    between atoms: _153  and  _154
REMARK   63  A    between atoms: _153  and  _156
REMARK   64  A    between atoms: _156  and  _157
REMARK   65  A    between atoms: _160  and  _162
REMARK   66  A    between atoms: _162  and  _163
REMARK   67  A    between atoms: _162  and  _165
REMARK   68  A    between atoms: _165  and  _166
REMARK   69  A    between atoms: _176  and  _178
REMARK   70  A    between atoms: _178  and  _179
REMARK   71  A    between atoms: _178  and  _181
REMARK   72  A    between atoms: _181  and  _182
REMARK   73  A    between atoms: _185  and  _187
REMARK   74  A    between atoms: _187  and  _188
REMARK   75  A    between atoms: _187  and  _190
REMARK   76  A    between atoms: _190  and  _191
REMARK   77  A    between atoms: _191  and  _192
REMARK   78  A    between atoms: _197  and  _199
REMARK   79  A    between atoms: _199  and  _200
REMARK   80  A    between atoms: _199  and  _202
REMARK   81  A    between atoms: _205  and  _207
REMARK   82  A    between atoms: _207  and  _208
REMARK   83  A    between atoms: _207  and  _210
REMARK   84  A    between atoms: _210  and  _211
REMARK   85  A    between atoms: _221  and  _223
REMARK   86  A    between atoms: _223  and  _224
REMARK   87  A    between atoms: _223  and  _226
REMARK   88  A    between atoms: _226  and  _227
REMARK   89  A    between atoms: _230  and  _232
REMARK   90  A    between atoms: _232  and  _233
REMARK   91  A    between atoms: _232  and  _235
REMARK   92  A    between atoms: _235  and  _236
REMARK   93  A    between atoms: _239  and  _241
REMARK   94  A    between atoms: _241  and  _242
REMARK   95  A    between atoms: _241  and  _244
REMARK   96  A    between atoms: _244  and  _245
REMARK   97  A    between atoms: _247  and  _249
REMARK   98  A    between atoms: _249  and  _250
REMARK   99  A    between atoms: _249  and  _252
REMARK  100  A    between atoms: _252  and  _253
REMARK  101  A    between atoms: _258  and  _259
REMARK  102  A    between atoms: _261  and  _263
REMARK  103  A    between atoms: _263  and  _264
REMARK  104  A    between atoms: _263  and  _266
REMARK  105  A    between atoms: _266  and  _267
REMARK  106  A    between atoms: _272  and  _273
REMARK  107  A    between atoms: _275  and  _277
REMARK  108  A    between atoms: _277  and  _278
REMARK  109  A    between atoms: _277  and  _280
REMARK  110  A    between atoms: _280  and  _281
REMARK  111  A    between atoms: _284  and  _286
REMARK  112  A    between atoms: _286  and  _287
REMARK  113  A    between atoms: _286  and  _289
REMARK  114  A    between atoms: _289  and  _290
REMARK  115  A    between atoms: _300  and  _302
REMARK  116  A    between atoms: _302  and  _303
REMARK  117  A    between atoms: _302  and  _305
REMARK  118  A    between atoms: _305  and  _306
REMARK  119  A    between atoms: _311  and  _313
REMARK  120  A    between atoms: _313  and  _314
REMARK  121  A    between atoms: _313  and  _316
REMARK  122  A    between atoms: _316  and  _317
REMARK  123  A    between atoms: _327  and  _329
REMARK  124  A    between atoms: _329  and  _330
REMARK  125  A    between atoms: _329  and  _332
REMARK  126  A    between atoms: _334  and  _336
REMARK  127  A    between atoms: _336  and  _337
REMARK  128  A    between atoms: _336  and  _339
REMARK  129  A    between atoms: _339  and  _340
REMARK  130  A    between atoms: _342  and  _344
REMARK  131  A    between atoms: _344  and  _345
REMARK  132  A    between atoms: _348  and  _350
REMARK  133  A    between atoms: _350  and  _351
REMARK  134  A    between atoms: _350  and  _353
REMARK  135  A    between atoms: _353  and  _354
REMARK  136  A    between atoms: _364  and  _366
REMARK  137  A    between atoms: _366  and  _367
REMARK  138  A    between atoms: _366  and  _369
REMARK  139  A    between atoms: _369  and  _370
REMARK  140  A    between atoms: _370  and  _371
REMARK                            x       y       z     vdW  Elec       q    Type
REMARK                         _______ _______ _______ _____ _____    ______ ____
ROOT
ATOM      1  CG  TRP A   1     -43.955   2.734 190.157  0.00  0.00    -0.002 A 
ATOM      2  CD1 TRP A   1     -43.025   3.622 190.610  0.00  0.00    +0.068 A 
ATOM      3  NE1 TRP A   1     -42.715   4.528 189.621  0.00  0.00    -0.352 N 
ATOM      4  HE1 TRP A   1     -42.032   5.308 189.708  0.00  0.00    +0.166 HD
ATOM      5  CE2 TRP A   1     -43.453   4.235 188.503  0.00  0.00    +0.056 A 
ATOM      6  CZ2 TRP A   1     -43.485   4.861 187.254  0.00  0.00    +0.017 A 
ATOM      7  CH2 TRP A   1     -44.332   4.342 186.310  0.00  0.00    +0.001 A 
ATOM      8  CZ3 TRP A   1     -45.141   3.229 186.586  0.00  0.00    +0.000 A 
ATOM      9  CE3 TRP A   1     -45.108   2.611 187.824  0.00  0.00    +0.001 A 
ATOM     10  CD2 TRP A   1     -44.251   3.117 188.807  0.00  0.00    +0.013 A 
ENDROOT
BRANCH   1  11
ATOM     11  CB  TRP A   1     -44.579   1.611 190.920  0.00  0.00    +0.053 C 
BRANCH  11  12
ATOM     12  CA  TRP A   1     -46.040   1.918 191.246  0.00  0.00    +0.137 C 
BRANCH  12  13
ATOM     13  N   TRP A   1     -46.125   3.115 192.075  0.00  0.00    -0.239 NA
ATOM     14  H   TRP A   1     -45.265   3.489 192.525  0.00  0.00    +0.142 HD
ENDBRANCH  12  13
BRANCH  12  15
ATOM     15  C   TRP A   1     -46.697   0.781 192.009  0.00  0.00    +0.224 C 
ATOM     16  O   TRP A   1     -46.683   0.769 193.244  0.00  0.00    -0.287 OA
ENDBRANCH  12  15
ENDBRANCH  11  12
ENDBRANCH   1  11
TORSDOF 4
REMARK  Name = ../refined-set-2016/3wmc/3wmc_pocket.pdb
REMARK  140 active torsions:
REMARK  status: ('A' for Active; 'I' for Inactive)
REMARK    1  A    between atoms: _1  and  _3
REMARK    2  A    between atoms: _3  and  _4
REMARK    3  A    between atoms: _3  and  _6
REMARK    4  A    between atoms: _6  and  _7
REMARK    5  A    between atoms: _10  and  _12
REMARK    6  A    between atoms: _12  and  _13
REMARK    7  A    between atoms: _12  and  _15
REMARK    8  A    between atoms: _15  and  _16
REMARK    9  A    between atoms: _16  and  _17
REMARK   10  A    between atoms: _17  and  _18
REMARK   11  A    between atoms: _27  and  _29
REMARK   12  A    between atoms: _29  and  _30
REMARK   13  A    between atoms: _29  and  _32
REMARK   14  A    between atoms: _32  and  _33
REMARK   15  A    between atoms: _38  and  _40
REMARK   16  A    between atoms: _40  and  _41
REMARK   17  A    between atoms: _40  and  _43
REMARK   18  A    between atoms: _43  and  _44
REMARK   19  A    between atoms: _47  and  _49
REMARK   20  A    between atoms: _49  and  _50
REMARK   21  A    between atoms: _49  and  _52
REMARK   22  A    between atoms: _52  and  _53
REMARK   23  A    between atoms: _53  and  _54
REMARK   24  A    between atoms: _57  and  _59
REMARK   25  A    between atoms: _59  and  _60
REMARK   26  A    between atoms: _59  and  _62
REMARK   27  A    between atoms: _62  and  _63
REMARK   28  A    between atoms: _66  and  _68
REMARK   29  A    between atoms: _68  and  _69
REMARK   30  A    between atoms: _68  and  _71
REMARK   31  A    between atoms: _71  and  _72
REMARK   32  A    between atoms: _77  and  _79
REMARK   33  A    between atoms: _79  and  _80
REMARK   34  A    between atoms: _79  and  _82
REMARK   35  A    between atoms: _82  and  _83
REMARK   36  A    between atoms: _93  and  _95
REMARK   37  A    between atoms: _95  and  _96
REMARK   38  A    between atoms: _95  and  _98
REMARK   39  A    between atoms: _101  and  _103
REMARK   40  A    between atoms: _103  and  _104
REMARK   41  A    between atoms: _103  and  _106
REMARK   42  A    between atoms: _106  and  _107
REMARK   43  A    between atoms: _107  and  _108
REMARK   44  A    between atoms: _111  and  _113
REMARK   45  A    between atoms: _113  and  _114
REMARK   46  A    between atoms: _113  and  _116
REMARK   47  A    between atoms: _116  and  _117
REMARK   48  A    between atoms: _122  and  _124
REMARK   49  A    between atoms: _124  and  _125
REMARK   50  A    between atoms: _127  and  _129
REMARK   51  A    between atoms: _129  and  _130
REMARK   52  A    between atoms: _132  and  _134
REMARK   53  A    between atoms: _134  and  _135
REMARK   54  A    between atoms: _134  and  _137
REMARK   55  A    between atoms: _137  and  _138
REMARK   56  A    between atoms: _141  and  _143
REMARK   57  A    between atoms: _143  and  _144
REMARK   58  A    between atoms: _143  and  _146
REMARK   59  A    between atoms: _146  and  _147
REMARK   60  A    between atoms: _147  and  _148
REMARK   61  A    between atoms: _151  and  _153
REMARK   62  A    between atoms: _153  and  _154
REMARK   63  A    between atoms: _153  and  _156
REMARK   64  A    between atoms: _156  and  _157
REMARK   65  A    between atoms: _160  and  _162
REMARK   66  A    between atoms: _162  and  _163
REMARK   67  A    between atoms: _162  and  _165
REMARK   68  A    between atoms: _165  and  _166
REMARK   69  A    between atoms: _176  and  _178
REMARK   70  A    between atoms: _178  and  _179
REMARK   71  A    between atoms: _178  and  _181
REMARK   72  A    between atoms: _181  and  _182
REMARK   73  A    between atoms: _185  and  _187
REMARK   74  A    between atoms: _187  and  _188
REMARK   75  A    between atoms: _187  and  _190
REMARK   76  A    between atoms: _190  and  _191
REMARK   77  A    between atoms: _191  and  _192
REMARK   78  A    between atoms: _197  and  _199
REMARK   79  A    between atoms: _199  and  _200
REMARK   80  A    between atoms: _199  and  _202
REMARK   81  A    between atoms: _205  and  _207
REMARK   82  A    between atoms: _207  and  _208
REMARK   83  A    between atoms: _207  and  _210
REMARK   84  A    between atoms: _210  and  _211
REMARK   85  A    between atoms: _221  and  _223
REMARK   86  A    between atoms: _223  and  _224
REMARK   87  A    between atoms: _223  and  _226
REMARK   88  A    between atoms: _226  and  _227
REMARK   89  A    between atoms: _230  and  _232
REMARK   90  A    between atoms: _232  and  _233
REMARK   91  A    between atoms: _232  and  _235
REMARK   92  A    between atoms: _235  and  _236
REMARK   93  A    between atoms: _239  and  _241
REMARK   94  A    between atoms: _241  and  _242
REMARK   95  A    between atoms: _241  and  _244
REMARK   96  A    between atoms: _244  and  _245
REMARK   97  A    between atoms: _247  and  _249
REMARK   98  A    between atoms: _249  and  _250
REMARK   99  A    between atoms: _249  and  _252
REMARK  100  A    between atoms: _252  and  _253
REMARK  101  A    between atoms: _258  and  _259
REMARK  102  A    between atoms: _261  and  _263
REMARK  103  A    between atoms: _263  and  _264
REMARK  104  A    between atoms: _263  and  _266
REMARK  105  A    between atoms: _266  and  _267
REMARK  106  A    between atoms: _272  and  _273
REMARK  107  A    between atoms: _275  and  _277
REMARK  108  A    between atoms: _277  and  _278
REMARK  109  A    between atoms: _277  and  _280
REMARK  110  A    between atoms: _280  and  _281
REMARK  111  A    between atoms: _284  and  _286
REMARK  112  A    between atoms: _286  and  _287
REMARK  113  A    between atoms: _286  and  _289
REMARK  114  A    between atoms: _289  and  _290
REMARK  115  A    between atoms: _300  and  _302
REMARK  116  A    between atoms: _302  and  _303
REMARK  117  A    between atoms: _302  and  _305
REMARK  118  A    between atoms: _305  and  _306
REMARK  119  A    between atoms: _311  and  _313
REMARK  120  A    between atoms: _313  and  _314
REMARK  121  A    between atoms: _313  and  _316
REMARK  122  A    between atoms: _316  and  _317
REMARK  123  A    between atoms: _327  and  _329
REMARK  124  A    between atoms: _329  and  _330
REMARK  125  A    between atoms: _329  and  _332
REMARK  126  A    between atoms: _334  and  _336
REMARK  127  A    between atoms: _336  and  _337
REMARK  128  A    between atoms: _336  and  _339
REMARK  129  A    between atoms: _339  and  _340
REMARK  130  A    between atoms: _342  and  _344
REMARK  131  A    between atoms: _344  and  _345
REMARK  132  A    between atoms: _348  and  _350
REMARK  133  A    between atoms: _350  and  _351
REMARK  134  A    between atoms: _350  and  _353
REMARK  135  A    between atoms: _353  and  _354
REMARK  136  A    between atoms: _364  and  _366
REMARK  137  A    between atoms: _366  and  _367
REMARK  138  A    between atoms: _366  and  _369
REMARK  139  A    between atoms: _369  and  _370
REMARK  140  A    between atoms: _370  and  _371
REMARK                            x       y       z     vdW  Elec       q    Type
REMARK                         _______ _______ _______ _____ _____    ______ ____
ROOT
ATOM      1  CA  GLU A   1     -46.072  -4.249 191.914  0.00  0.00    +0.134 C 
ENDROOT
BRANCH   1   2
ATOM      2  N   GLU A   1     -46.520  -2.863 191.790  0.00  0.00    -0.239 NA
ATOM      3  H   GLU A   1     -45.833  -2.110 191.584  0.00  0.00    +0.142 HD
ENDBRANCH   1   2
BRANCH   1   4
ATOM      4  C   GLU A   1     -46.488  -4.801 193.269  0.00  0.00    +0.224 C 
ATOM      5  O   GLU A   1     -46.783  -5.987 193.400  0.00  0.00    -0.287 OA
ENDBRANCH   1   4
BRANCH   1   6
ATOM      6  CB  GLU A   1     -44.554  -4.358 191.757  0.00  0.00    +0.037 C 
BRANCH   6   7
ATOM      7  CG  GLU A   1     -44.046  -4.194 190.328  0.00  0.00    +0.116 C 
BRANCH   7   8
ATOM      8  CD  GLU A   1     -43.786  -2.745 189.966  0.00  0.00    +0.365 C 
ATOM      9  OE2 GLU A   1     -44.107  -1.850 190.785  0.00  0.00    -0.246 OA
ATOM     10  OE1 GLU A   1     -43.251  -2.497 188.865  0.00  0.00    -0.246 OA
ENDBRANCH   7   8
ENDBRANCH   6   7
ENDBRANCH   1   6
TORSDOF 5
REMARK  Name = ../refined-set-2016/3wmc/3wmc_pocket.pdb
REMARK  140 active torsions:
REMARK  status: ('A' for Active; 'I' for Inactive)
REMARK    1  A    between atoms: _1  and  _3
REMARK    2  A    between atoms: _3  and  _4
REMARK    3  A    between atoms: _3  and  _6
REMARK    4  A    between atoms: _6  and  _7
REMARK    5  A    between atoms: _10  and  _12
REMARK    6  A    between atoms: _12  and  _13
REMARK    7  A    between atoms: _12  and  _15
REMARK    8  A    between atoms: _15  and  _16
REMARK    9  A    between atoms: _16  and  _17
REMARK   10  A    between atoms: _17  and  _18
REMARK   11  A    between atoms: _27  and  _29
REMARK   12  A    between atoms: _29  and  _30
REMARK   13  A    between atoms: _29  and  _32
REMARK   14  A    between atoms: _32  and  _33
REMARK   15  A    between atoms: _38  and  _40
REMARK   16  A    between atoms: _40  and  _41
REMARK   17  A    between atoms: _40  and  _43
REMARK   18  A    between atoms: _43  and  _44
REMARK   19  A    between atoms: _47  and  _49
REMARK   20  A    between atoms: _49  and  _50
REMARK   21  A    between atoms: _49  and  _52
REMARK   22  A    between atoms: _52  and  _53
REMARK   23  A    between atoms: _53  and  _54
REMARK   24  A    between atoms: _57  and  _59
REMARK   25  A    between atoms: _59  and  _60
REMARK   26  A    between atoms: _59  and  _62
REMARK   27  A    between atoms: _62  and  _63
REMARK   28  A    between atoms: _66  and  _68
REMARK   29  A    between atoms: _68  and  _69
REMARK   30  A    between atoms: _68  and  _71
REMARK   31  A    between atoms: _71  and  _72
REMARK   32  A    between atoms: _77  and  _79
REMARK   33  A    between atoms: _79  and  _80
REMARK   34  A    between atoms: _79  and  _82
REMARK   35  A    between atoms: _82  and  _83
REMARK   36  A    between atoms: _93  and  _95
REMARK   37  A    between atoms: _95  and  _96
REMARK   38  A    between atoms: _95  and  _98
REMARK   39  A    between atoms: _101  and  _103
REMARK   40  A    between atoms: _103  and  _104
REMARK   41  A    between atoms: _103  and  _106
REMARK   42  A    between atoms: _106  and  _107
REMARK   43  A    between atoms: _107  and  _108
REMARK   44  A    between atoms: _111  and  _113
REMARK   45  A    between atoms: _113  and  _114
REMARK   46  A    between atoms: _113  and  _116
REMARK   47  A    between atoms: _116  and  _117
REMARK   48  A    between atoms: _122  and  _124
REMARK   49  A    between atoms: _124  and  _125
REMARK   50  A    between atoms: _127  and  _129
REMARK   51  A    between atoms: _129  and  _130
REMARK   52  A    between atoms: _132  and  _134
REMARK   53  A    between atoms: _134  and  _135
REMARK   54  A    between atoms: _134  and  _137
REMARK   55  A    between atoms: _137  and  _138
REMARK   56  A    between atoms: _141  and  _143
REMARK   57  A    between atoms: _143  and  _144
REMARK   58  A    between atoms: _143  and  _146
REMARK   59  A    between atoms: _146  and  _147
REMARK   60  A    between atoms: _147  and  _148
REMARK   61  A    between atoms: _151  and  _153
REMARK   62  A    between atoms: _153  and  _154
REMARK   63  A    between atoms: _153  and  _156
REMARK   64  A    between atoms: _156  and  _157
REMARK   65  A    between atoms: _160  and  _162
REMARK   66  A    between atoms: _162  and  _163
REMARK   67  A    between atoms: _162  and  _165
REMARK   68  A    between atoms: _165  and  _166
REMARK   69  A    between atoms: _176  and  _178
REMARK   70  A    between atoms: _178  and  _179
REMARK   71  A    between atoms: _178  and  _181
REMARK   72  A    between atoms: _181  and  _182
REMARK   73  A    between atoms: _185  and  _187
REMARK   74  A    between atoms: _187  and  _188
REMARK   75  A    between atoms: _187  and  _190
REMARK   76  A    between atoms: _190  and  _191
REMARK   77  A    between atoms: _191  and  _192
REMARK   78  A    between atoms: _197  and  _199
REMARK   79  A    between atoms: _199  and  _200
REMARK   80  A    between atoms: _199  and  _202
REMARK   81  A    between atoms: _205  and  _207
REMARK   82  A    between atoms: _207  and  _208
REMARK   83  A    between atoms: _207  and  _210
REMARK   84  A    between atoms: _210  and  _211
REMARK   85  A    between atoms: _221  and  _223
REMARK   86  A    between atoms: _223  and  _224
REMARK   87  A    between atoms: _223  and  _226
REMARK   88  A    between atoms: _226  and  _227
REMARK   89  A    between atoms: _230  and  _232
REMARK   90  A    between atoms: _232  and  _233
REMARK   91  A    between atoms: _232  and  _235
REMARK   92  A    between atoms: _235  and  _236
REMARK   93  A    between atoms: _239  and  _241
REMARK   94  A    between atoms: _241  and  _242
REMARK   95  A    between atoms: _241  and  _244
REMARK   96  A    between atoms: _244  and  _245
REMARK   97  A    between atoms: _247  and  _249
REMARK   98  A    between atoms: _249  and  _250
REMARK   99  A    between atoms: _249  and  _252
REMARK  100  A    between atoms: _252  and  _253
REMARK  101  A    between atoms: _258  and  _259
REMARK  102  A    between atoms: _261  and  _263
REMARK  103  A    between atoms: _263  and  _264
REMARK  104  A    between atoms: _263  and  _266
REMARK  105  A    between atoms: _266  and  _267
REMARK  106  A    between atoms: _272  and  _273
REMARK  107  A    between atoms: _275  and  _277
REMARK  108  A    between atoms: _277  and  _278
REMARK  109  A    between atoms: _277  and  _280
REMARK  110  A    between atoms: _280  and  _281
REMARK  111  A    between atoms: _284  and  _286
REMARK  112  A    between atoms: _286  and  _287
REMARK  113  A    between atoms: _286  and  _289
REMARK  114  A    between atoms: _289  and  _290
REMARK  115  A    between atoms: _300  and  _302
REMARK  116  A    between atoms: _302  and  _303
REMARK  117  A    between atoms: _302  and  _305
REMARK  118  A    between atoms: _305  and  _306
REMARK  119  A    between atoms: _311  and  _313
REMARK  120  A    between atoms: _313  and  _314
REMARK  121  A    between atoms: _313  and  _316
REMARK  122  A    between atoms: _316  and  _317
REMARK  123  A    between atoms: _327  and  _329
REMARK  124  A    between atoms: _329  and  _330
REMARK  125  A    between atoms: _329  and  _332
REMARK  126  A    between atoms: _334  and  _336
REMARK  127  A    between atoms: _336  and  _337
REMARK  128  A    between atoms: _336  and  _339
REMARK  129  A    between atoms: _339  and  _340
REMARK  130  A    between atoms: _342  and  _344
REMARK  131  A    between atoms: _344  and  _345
REMARK  132  A    between atoms: _348  and  _350
REMARK  133  A    between atoms: _350  and  _351
REMARK  134  A    between atoms: _350  and  _353
REMARK  135  A    between atoms: _353  and  _354
REMARK  136  A    between atoms: _364  and  _366
REMARK  137  A    between atoms: _366  and  _367
REMARK  138  A    between atoms: _366  and  _369
REMARK  139  A    between atoms: _369  and  _370
REMARK  140  A    between atoms: _370  and  _371
REMARK                            x       y       z     vdW  Elec       q    Type
REMARK                         _______ _______ _______ _____ _____    ______ ____
ROOT
ATOM      1  O   HOH     1     -43.298  -1.163 193.103  0.00  0.00    +0.000 OA
ENDROOT
TORSDOF 0
REMARK  Name = ../refined-set-2016/3wmc/3wmc_pocket.pdb
REMARK  140 active torsions:
REMARK  status: ('A' for Active; 'I' for Inactive)
REMARK    1  A    between atoms: _1  and  _3
REMARK    2  A    between atoms: _3  and  _4
REMARK    3  A    between atoms: _3  and  _6
REMARK    4  A    between atoms: _6  and  _7
REMARK    5  A    between atoms: _10  and  _12
REMARK    6  A    between atoms: _12  and  _13
REMARK    7  A    between atoms: _12  and  _15
REMARK    8  A    between atoms: _15  and  _16
REMARK    9  A    between atoms: _16  and  _17
REMARK   10  A    between atoms: _17  and  _18
REMARK   11  A    between atoms: _27  and  _29
REMARK   12  A    between atoms: _29  and  _30
REMARK   13  A    between atoms: _29  and  _32
REMARK   14  A    between atoms: _32  and  _33
REMARK   15  A    between atoms: _38  and  _40
REMARK   16  A    between atoms: _40  and  _41
REMARK   17  A    between atoms: _40  and  _43
REMARK   18  A    between atoms: _43  and  _44
REMARK   19  A    between atoms: _47  and  _49
REMARK   20  A    between atoms: _49  and  _50
REMARK   21  A    between atoms: _49  and  _52
REMARK   22  A    between atoms: _52  and  _53
REMARK   23  A    between atoms: _53  and  _54
REMARK   24  A    between atoms: _57  and  _59
REMARK   25  A    between atoms: _59  and  _60
REMARK   26  A    between atoms: _59  and  _62
REMARK   27  A    between atoms: _62  and  _63
REMARK   28  A    between atoms: _66  and  _68
REMARK   29  A    between atoms: _68  and  _69
REMARK   30  A    between atoms: _68  and  _71
REMARK   31  A    between atoms: _71  and  _72
REMARK   32  A    between atoms: _77  and  _79
REMARK   33  A    between atoms: _79  and  _80
REMARK   34  A    between atoms: _79  and  _82
REMARK   35  A    between atoms: _82  and  _83
REMARK   36  A    between atoms: _93  and  _95
REMARK   37  A    between atoms: _95  and  _96
REMARK   38  A    between atoms: _95  and  _98
REMARK   39  A    between atoms: _101  and  _103
REMARK   40  A    between atoms: _103  and  _104
REMARK   41  A    between atoms: _103  and  _106
REMARK   42  A    between atoms: _106  and  _107
REMARK   43  A    between atoms: _107  and  _108
REMARK   44  A    between atoms: _111  and  _113
REMARK   45  A    between atoms: _113  and  _114
REMARK   46  A    between atoms: _113  and  _116
REMARK   47  A    between atoms: _116  and  _117
REMARK   48  A    between atoms: _122  and  _124
REMARK   49  A    between atoms: _124  and  _125
REMARK   50  A    between atoms: _127  and  _129
REMARK   51  A    between atoms: _129  and  _130
REMARK   52  A    between atoms: _132  and  _134
REMARK   53  A    between atoms: _134  and  _135
REMARK   54  A    between atoms: _134  and  _137
REMARK   55  A    between atoms: _137  and  _138
REMARK   56  A    between atoms: _141  and  _143
REMARK   57  A    between atoms: _143  and  _144
REMARK   58  A    between atoms: _143  and  _146
REMARK   59  A    between atoms: _146  and  _147
REMARK   60  A    between atoms: _147  and  _148
REMARK   61  A    between atoms: _151  and  _153
REMARK   62  A    between atoms: _153  and  _154
REMARK   63  A    between atoms: _153  and  _156
REMARK   64  A    between atoms: _156  and  _157
REMARK   65  A    between atoms: _160  and  _162
REMARK   66  A    between atoms: _162  and  _163
REMARK   67  A    between atoms: _162  and  _165
REMARK   68  A    between atoms: _165  and  _166
REMARK   69  A    between atoms: _176  and  _178
REMARK   70  A    between atoms: _178  and  _179
REMARK   71  A    between atoms: _178  and  _181
REMARK   72  A    between atoms: _181  and  _182
REMARK   73  A    between atoms: _185  and  _187
REMARK   74  A    between atoms: _187  and  _188
REMARK   75  A    between atoms: _187  and  _190
REMARK   76  A    between atoms: _190  and  _191
REMARK   77  A    between atoms: _191  and  _192
REMARK   78  A    between atoms: _197  and  _199
REMARK   79  A    between atoms: _199  and  _200
REMARK   80  A    between atoms: _199  and  _202
REMARK   81  A    between atoms: _205  and  _207
REMARK   82  A    between atoms: _207  and  _208
REMARK   83  A    between atoms: _207  and  _210
REMARK   84  A    between atoms: _210  and  _211
REMARK   85  A    between atoms: _221  and  _223
REMARK   86  A    between atoms: _223  and  _224
REMARK   87  A    between atoms: _223  and  _226
REMARK   88  A    between atoms: _226  and  _227
REMARK   89  A    between atoms: _230  and  _232
REMARK   90  A    between atoms: _232  and  _233
REMARK   91  A    between atoms: _232  and  _235
REMARK   92  A    between atoms: _235  and  _236
REMARK   93  A    between atoms: _239  and  _241
REMARK   94  A    between atoms: _241  and  _242
REMARK   95  A    between atoms: _241  and  _244
REMARK   96  A    between atoms: _244  and  _245
REMARK   97  A    between atoms: _247  and  _249
REMARK   98  A    between atoms: _249  and  _250
REMARK   99  A    between atoms: _249  and  _252
REMARK  100  A    between atoms: _252  and  _253
REMARK  101  A    between atoms: _258  and  _259
REMARK  102  A    between atoms: _261  and  _263
REMARK  103  A    between atoms: _263  and  _264
REMARK  104  A    between atoms: _263  and  _266
REMARK  105  A    between atoms: _266  and  _267
REMARK  106  A    between atoms: _272  and  _273
REMARK  107  A    between atoms: _275  and  _277
REMARK  108  A    between atoms: _277  and  _278
REMARK  109  A    between atoms: _277  and  _280
REMARK  110  A    between atoms: _280  and  _281
REMARK  111  A    between atoms: _284  and  _286
REMARK  112  A    between atoms: _286  and  _287
REMARK  113  A    between atoms: _286  and  _289
REMARK  114  A    between atoms: _289  and  _290
REMARK  115  A    between atoms: _300  and  _302
REMARK  116  A    between atoms: _302  and  _303
REMARK  117  A    between atoms: _302  and  _305
REMARK  118  A    between atoms: _305  and  _306
REMARK  119  A    between atoms: _311  and  _313
REMARK  120  A    between atoms: _313  and  _314
REMARK  121  A    between atoms: _313  and  _316
REMARK  122  A    between atoms: _316  and  _317
REMARK  123  A    between atoms: _327  and  _329
REMARK  124  A    between atoms: _329  and  _330
REMARK  125  A    between atoms: _329  and  _332
REMARK  126  A    between atoms: _334  and  _336
REMARK  127  A    between atoms: _336  and  _337
REMARK  128  A    between atoms: _336  and  _339
REMARK  129  A    between atoms: _339  and  _340
REMARK  130  A    between atoms: _342  and  _344
REMARK  131  A    between atoms: _344  and  _345
REMARK  132  A    between atoms: _348  and  _350
REMARK  133  A    between atoms: _350  and  _351
REMARK  134  A    between atoms: _350  and  _353
REMARK  135  A    between atoms: _353  and  _354
REMARK  136  A    between atoms: _364  and  _366
REMARK  137  A    between atoms: _366  and  _367
REMARK  138  A    between atoms: _366  and  _369
REMARK  139  A    between atoms: _369  and  _370
REMARK  140  A    between atoms: _370  and  _371
REMARK                            x       y       z     vdW  Elec       q    Type
REMARK                         _______ _______ _______ _____ _____    ______ ____
ROOT
ATOM      1  O   HOH     1     -38.258  -7.044 194.466  0.00  0.00    +0.000 OA
ENDROOT
TORSDOF 0
REMARK  Name = ../refined-set-2016/3wmc/3wmc_pocket.pdb
REMARK  140 active torsions:
REMARK  status: ('A' for Active; 'I' for Inactive)
REMARK    1  A    between atoms: _1  and  _3
REMARK    2  A    between atoms: _3  and  _4
REMARK    3  A    between atoms: _3  and  _6
REMARK    4  A    between atoms: _6  and  _7
REMARK    5  A    between atoms: _10  and  _12
REMARK    6  A    between atoms: _12  and  _13
REMARK    7  A    between atoms: _12  and  _15
REMARK    8  A    between atoms: _15  and  _16
REMARK    9  A    between atoms: _16  and  _17
REMARK   10  A    between atoms: _17  and  _18
REMARK   11  A    between atoms: _27  and  _29
REMARK   12  A    between atoms: _29  and  _30
REMARK   13  A    between atoms: _29  and  _32
REMARK   14  A    between atoms: _32  and  _33
REMARK   15  A    between atoms: _38  and  _40
REMARK   16  A    between atoms: _40  and  _41
REMARK   17  A    between atoms: _40  and  _43
REMARK   18  A    between atoms: _43  and  _44
REMARK   19  A    between atoms: _47  and  _49
REMARK   20  A    between atoms: _49  and  _50
REMARK   21  A    between atoms: _49  and  _52
REMARK   22  A    between atoms: _52  and  _53
REMARK   23  A    between atoms: _53  and  _54
REMARK   24  A    between atoms: _57  and  _59
REMARK   25  A    between atoms: _59  and  _60
REMARK   26  A    between atoms: _59  and  _62
REMARK   27  A    between atoms: _62  and  _63
REMARK   28  A    between atoms: _66  and  _68
REMARK   29  A    between atoms: _68  and  _69
REMARK   30  A    between atoms: _68  and  _71
REMARK   31  A    between atoms: _71  and  _72
REMARK   32  A    between atoms: _77  and  _79
REMARK   33  A    between atoms: _79  and  _80
REMARK   34  A    between atoms: _79  and  _82
REMARK   35  A    between atoms: _82  and  _83
REMARK   36  A    between atoms: _93  and  _95
REMARK   37  A    between atoms: _95  and  _96
REMARK   38  A    between atoms: _95  and  _98
REMARK   39  A    between atoms: _101  and  _103
REMARK   40  A    between atoms: _103  and  _104
REMARK   41  A    between atoms: _103  and  _106
REMARK   42  A    between atoms: _106  and  _107
REMARK   43  A    between atoms: _107  and  _108
REMARK   44  A    between atoms: _111  and  _113
REMARK   45  A    between atoms: _113  and  _114
REMARK   46  A    between atoms: _113  and  _116
REMARK   47  A    between atoms: _116  and  _117
REMARK   48  A    between atoms: _122  and  _124
REMARK   49  A    between atoms: _124  and  _125
REMARK   50  A    between atoms: _127  and  _129
REMARK   51  A    between atoms: _129  and  _130
REMARK   52  A    between atoms: _132  and  _134
REMARK   53  A    between atoms: _134  and  _135
REMARK   54  A    between atoms: _134  and  _137
REMARK   55  A    between atoms: _137  and  _138
REMARK   56  A    between atoms: _141  and  _143
REMARK   57  A    between atoms: _143  and  _144
REMARK   58  A    between atoms: _143  and  _146
REMARK   59  A    between atoms: _146  and  _147
REMARK   60  A    between atoms: _147  and  _148
REMARK   61  A    between atoms: _151  and  _153
REMARK   62  A    between atoms: _153  and  _154
REMARK   63  A    between atoms: _153  and  _156
REMARK   64  A    between atoms: _156  and  _157
REMARK   65  A    between atoms: _160  and  _162
REMARK   66  A    between atoms: _162  and  _163
REMARK   67  A    between atoms: _162  and  _165
REMARK   68  A    between atoms: _165  and  _166
REMARK   69  A    between atoms: _176  and  _178
REMARK   70  A    between atoms: _178  and  _179
REMARK   71  A    between atoms: _178  and  _181
REMARK   72  A    between atoms: _181  and  _182
REMARK   73  A    between atoms: _185  and  _187
REMARK   74  A    between atoms: _187  and  _188
REMARK   75  A    between atoms: _187  and  _190
REMARK   76  A    between atoms: _190  and  _191
REMARK   77  A    between atoms: _191  and  _192
REMARK   78  A    between atoms: _197  and  _199
REMARK   79  A    between atoms: _199  and  _200
REMARK   80  A    between atoms: _199  and  _202
REMARK   81  A    between atoms: _205  and  _207
REMARK   82  A    between atoms: _207  and  _208
REMARK   83  A    between atoms: _207  and  _210
REMARK   84  A    between atoms: _210  and  _211
REMARK   85  A    between atoms: _221  and  _223
REMARK   86  A    between atoms: _223  and  _224
REMARK   87  A    between atoms: _223  and  _226
REMARK   88  A    between atoms: _226  and  _227
REMARK   89  A    between atoms: _230  and  _232
REMARK   90  A    between atoms: _232  and  _233
REMARK   91  A    between atoms: _232  and  _235
REMARK   92  A    between atoms: _235  and  _236
REMARK   93  A    between atoms: _239  and  _241
REMARK   94  A    between atoms: _241  and  _242
REMARK   95  A    between atoms: _241  and  _244
REMARK   96  A    between atoms: _244  and  _245
REMARK   97  A    between atoms: _247  and  _249
REMARK   98  A    between atoms: _249  and  _250
REMARK   99  A    between atoms: _249  and  _252
REMARK  100  A    between atoms: _252  and  _253
REMARK  101  A    between atoms: _258  and  _259
REMARK  102  A    between atoms: _261  and  _263
REMARK  103  A    between atoms: _263  and  _264
REMARK  104  A    between atoms: _263  and  _266
REMARK  105  A    between atoms: _266  and  _267
REMARK  106  A    between atoms: _272  and  _273
REMARK  107  A    between atoms: _275  and  _277
REMARK  108  A    between atoms: _277  and  _278
REMARK  109  A    between atoms: _277  and  _280
REMARK  110  A    between atoms: _280  and  _281
REMARK  111  A    between atoms: _284  and  _286
REMARK  112  A    between atoms: _286  and  _287
REMARK  113  A    between atoms: _286  and  _289
REMARK  114  A    between atoms: _289  and  _290
REMARK  115  A    between atoms: _300  and  _302
REMARK  116  A    between atoms: _302  and  _303
REMARK  117  A    between atoms: _302  and  _305
REMARK  118  A    between atoms: _305  and  _306
REMARK  119  A    between atoms: _311  and  _313
REMARK  120  A    between atoms: _313  and  _314
REMARK  121  A    between atoms: _313  and  _316
REMARK  122  A    between atoms: _316  and  _317
REMARK  123  A    between atoms: _327  and  _329
REMARK  124  A    between atoms: _329  and  _330
REMARK  125  A    between atoms: _329  and  _332
REMARK  126  A    between atoms: _334  and  _336
REMARK  127  A    between atoms: _336  and  _337
REMARK  128  A    between atoms: _336  and  _339
REMARK  129  A    between atoms: _339  and  _340
REMARK  130  A    between atoms: _342  and  _344
REMARK  131  A    between atoms: _344  and  _345
REMARK  132  A    between atoms: _348  and  _350
REMARK  133  A    between atoms: _350  and  _351
REMARK  134  A    between atoms: _350  and  _353
REMARK  135  A    between atoms: _353  and  _354
REMARK  136  A    between atoms: _364  and  _366
REMARK  137  A    between atoms: _366  and  _367
REMARK  138  A    between atoms: _366  and  _369
REMARK  139  A    between atoms: _369  and  _370
REMARK  140  A    between atoms: _370  and  _371
REMARK                            x       y       z     vdW  Elec       q    Type
REMARK                         _______ _______ _______ _____ _____    ______ ____
ROOT
ATOM      1  O   HOH     1     -43.400  -4.074 183.718  0.00  0.00    +0.000 OA
ENDROOT
TORSDOF 0
REMARK  Name = ../refined-set-2016/3wmc/3wmc_pocket.pdb
REMARK  140 active torsions:
REMARK  status: ('A' for Active; 'I' for Inactive)
REMARK    1  A    between atoms: _1  and  _3
REMARK    2  A    between atoms: _3  and  _4
REMARK    3  A    between atoms: _3  and  _6
REMARK    4  A    between atoms: _6  and  _7
REMARK    5  A    between atoms: _10  and  _12
REMARK    6  A    between atoms: _12  and  _13
REMARK    7  A    between atoms: _12  and  _15
REMARK    8  A    between atoms: _15  and  _16
REMARK    9  A    between atoms: _16  and  _17
REMARK   10  A    between atoms: _17  and  _18
REMARK   11  A    between atoms: _27  and  _29
REMARK   12  A    between atoms: _29  and  _30
REMARK   13  A    between atoms: _29  and  _32
REMARK   14  A    between atoms: _32  and  _33
REMARK   15  A    between atoms: _38  and  _40
REMARK   16  A    between atoms: _40  and  _41
REMARK   17  A    between atoms: _40  and  _43
REMARK   18  A    between atoms: _43  and  _44
REMARK   19  A    between atoms: _47  and  _49
REMARK   20  A    between atoms: _49  and  _50
REMARK   21  A    between atoms: _49  and  _52
REMARK   22  A    between atoms: _52  and  _53
REMARK   23  A    between atoms: _53  and  _54
REMARK   24  A    between atoms: _57  and  _59
REMARK   25  A    between atoms: _59  and  _60
REMARK   26  A    between atoms: _59  and  _62
REMARK   27  A    between atoms: _62  and  _63
REMARK   28  A    between atoms: _66  and  _68
REMARK   29  A    between atoms: _68  and  _69
REMARK   30  A    between atoms: _68  and  _71
REMARK   31  A    between atoms: _71  and  _72
REMARK   32  A    between atoms: _77  and  _79
REMARK   33  A    between atoms: _79  and  _80
REMARK   34  A    between atoms: _79  and  _82
REMARK   35  A    between atoms: _82  and  _83
REMARK   36  A    between atoms: _93  and  _95
REMARK   37  A    between atoms: _95  and  _96
REMARK   38  A    between atoms: _95  and  _98
REMARK   39  A    between atoms: _101  and  _103
REMARK   40  A    between atoms: _103  and  _104
REMARK   41  A    between atoms: _103  and  _106
REMARK   42  A    between atoms: _106  and  _107
REMARK   43  A    between atoms: _107  and  _108
REMARK   44  A    between atoms: _111  and  _113
REMARK   45  A    between atoms: _113  and  _114
REMARK   46  A    between atoms: _113  and  _116
REMARK   47  A    between atoms: _116  and  _117
REMARK   48  A    between atoms: _122  and  _124
REMARK   49  A    between atoms: _124  and  _125
REMARK   50  A    between atoms: _127  and  _129
REMARK   51  A    between atoms: _129  and  _130
REMARK   52  A    between atoms: _132  and  _134
REMARK   53  A    between atoms: _134  and  _135
REMARK   54  A    between atoms: _134  and  _137
REMARK   55  A    between atoms: _137  and  _138
REMARK   56  A    between atoms: _141  and  _143
REMARK   57  A    between atoms: _143  and  _144
REMARK   58  A    between atoms: _143  and  _146
REMARK   59  A    between atoms: _146  and  _147
REMARK   60  A    between atoms: _147  and  _148
REMARK   61  A    between atoms: _151  and  _153
REMARK   62  A    between atoms: _153  and  _154
REMARK   63  A    between atoms: _153  and  _156
REMARK   64  A    between atoms: _156  and  _157
REMARK   65  A    between atoms: _160  and  _162
REMARK   66  A    between atoms: _162  and  _163
REMARK   67  A    between atoms: _162  and  _165
REMARK   68  A    between atoms: _165  and  _166
REMARK   69  A    between atoms: _176  and  _178
REMARK   70  A    between atoms: _178  and  _179
REMARK   71  A    between atoms: _178  and  _181
REMARK   72  A    between atoms: _181  and  _182
REMARK   73  A    between atoms: _185  and  _187
REMARK   74  A    between atoms: _187  and  _188
REMARK   75  A    between atoms: _187  and  _190
REMARK   76  A    between atoms: _190  and  _191
REMARK   77  A    between atoms: _191  and  _192
REMARK   78  A    between atoms: _197  and  _199
REMARK   79  A    between atoms: _199  and  _200
REMARK   80  A    between atoms: _199  and  _202
REMARK   81  A    between atoms: _205  and  _207
REMARK   82  A    between atoms: _207  and  _208
REMARK   83  A    between atoms: _207  and  _210
REMARK   84  A    between atoms: _210  and  _211
REMARK   85  A    between atoms: _221  and  _223
REMARK   86  A    between atoms: _223  and  _224
REMARK   87  A    between atoms: _223  and  _226
REMARK   88  A    between atoms: _226  and  _227
REMARK   89  A    between atoms: _230  and  _232
REMARK   90  A    between atoms: _232  and  _233
REMARK   91  A    between atoms: _232  and  _235
REMARK   92  A    between atoms: _235  and  _236
REMARK   93  A    between atoms: _239  and  _241
REMARK   94  A    between atoms: _241  and  _242
REMARK   95  A    between atoms: _241  and  _244
REMARK   96  A    between atoms: _244  and  _245
REMARK   97  A    between atoms: _247  and  _249
REMARK   98  A    between atoms: _249  and  _250
REMARK   99  A    between atoms: _249  and  _252
REMARK  100  A    between atoms: _252  and  _253
REMARK  101  A    between atoms: _258  and  _259
REMARK  102  A    between atoms: _261  and  _263
REMARK  103  A    between atoms: _263  and  _264
REMARK  104  A    between atoms: _263  and  _266
REMARK  105  A    between atoms: _266  and  _267
REMARK  106  A    between atoms: _272  and  _273
REMARK  107  A    between atoms: _275  and  _277
REMARK  108  A    between atoms: _277  and  _278
REMARK  109  A    between atoms: _277  and  _280
REMARK  110  A    between atoms: _280  and  _281
REMARK  111  A    between atoms: _284  and  _286
REMARK  112  A    between atoms: _286  and  _287
REMARK  113  A    between atoms: _286  and  _289
REMARK  114  A    between atoms: _289  and  _290
REMARK  115  A    between atoms: _300  and  _302
REMARK  116  A    between atoms: _302  and  _303
REMARK  117  A    between atoms: _302  and  _305
REMARK  118  A    between atoms: _305  and  _306
REMARK  119  A    between atoms: _311  and  _313
REMARK  120  A    between atoms: _313  and  _314
REMARK  121  A    between atoms: _313  and  _316
REMARK  122  A    between atoms: _316  and  _317
REMARK  123  A    between atoms: _327  and  _329
REMARK  124  A    between atoms: _329  and  _330
REMARK  125  A    between atoms: _329  and  _332
REMARK  126  A    between atoms: _334  and  _336
REMARK  127  A    between atoms: _336  and  _337
REMARK  128  A    between atoms: _336  and  _339
REMARK  129  A    between atoms: _339  and  _340
REMARK  130  A    between atoms: _342  and  _344
REMARK  131  A    between atoms: _344  and  _345
REMARK  132  A    between atoms: _348  and  _350
REMARK  133  A    between atoms: _350  and  _351
REMARK  134  A    between atoms: _350  and  _353
REMARK  135  A    between atoms: _353  and  _354
REMARK  136  A    between atoms: _364  and  _366
REMARK  137  A    between atoms: _366  and  _367
REMARK  138  A    between atoms: _366  and  _369
REMARK  139  A    between atoms: _369  and  _370
REMARK  140  A    between atoms: _370  and  _371
REMARK                            x       y       z     vdW  Elec       q    Type
REMARK                         _______ _______ _______ _____ _____    ______ ____
ROOT
ATOM      1  O   HOH     1     -42.008  -0.002 188.497  0.00  0.00    +0.000 OA
ENDROOT
TORSDOF 0
REMARK  Name = ../refined-set-2016/3wmc/3wmc_pocket.pdb
REMARK  140 active torsions:
REMARK  status: ('A' for Active; 'I' for Inactive)
REMARK    1  A    between atoms: _1  and  _3
REMARK    2  A    between atoms: _3  and  _4
REMARK    3  A    between atoms: _3  and  _6
REMARK    4  A    between atoms: _6  and  _7
REMARK    5  A    between atoms: _10  and  _12
REMARK    6  A    between atoms: _12  and  _13
REMARK    7  A    between atoms: _12  and  _15
REMARK    8  A    between atoms: _15  and  _16
REMARK    9  A    between atoms: _16  and  _17
REMARK   10  A    between atoms: _17  and  _18
REMARK   11  A    between atoms: _27  and  _29
REMARK   12  A    between atoms: _29  and  _30
REMARK   13  A    between atoms: _29  and  _32
REMARK   14  A    between atoms: _32  and  _33
REMARK   15  A    between atoms: _38  and  _40
REMARK   16  A    between atoms: _40  and  _41
REMARK   17  A    between atoms: _40  and  _43
REMARK   18  A    between atoms: _43  and  _44
REMARK   19  A    between atoms: _47  and  _49
REMARK   20  A    between atoms: _49  and  _50
REMARK   21  A    between atoms: _49  and  _52
REMARK   22  A    between atoms: _52  and  _53
REMARK   23  A    between atoms: _53  and  _54
REMARK   24  A    between atoms: _57  and  _59
REMARK   25  A    between atoms: _59  and  _60
REMARK   26  A    between atoms: _59  and  _62
REMARK   27  A    between atoms: _62  and  _63
REMARK   28  A    between atoms: _66  and  _68
REMARK   29  A    between atoms: _68  and  _69
REMARK   30  A    between atoms: _68  and  _71
REMARK   31  A    between atoms: _71  and  _72
REMARK   32  A    between atoms: _77  and  _79
REMARK   33  A    between atoms: _79  and  _80
REMARK   34  A    between atoms: _79  and  _82
REMARK   35  A    between atoms: _82  and  _83
REMARK   36  A    between atoms: _93  and  _95
REMARK   37  A    between atoms: _95  and  _96
REMARK   38  A    between atoms: _95  and  _98
REMARK   39  A    between atoms: _101  and  _103
REMARK   40  A    between atoms: _103  and  _104
REMARK   41  A    between atoms: _103  and  _106
REMARK   42  A    between atoms: _106  and  _107
REMARK   43  A    between atoms: _107  and  _108
REMARK   44  A    between atoms: _111  and  _113
REMARK   45  A    between atoms: _113  and  _114
REMARK   46  A    between atoms: _113  and  _116
REMARK   47  A    between atoms: _116  and  _117
REMARK   48  A    between atoms: _122  and  _124
REMARK   49  A    between atoms: _124  and  _125
REMARK   50  A    between atoms: _127  and  _129
REMARK   51  A    between atoms: _129  and  _130
REMARK   52  A    between atoms: _132  and  _134
REMARK   53  A    between atoms: _134  and  _135
REMARK   54  A    between atoms: _134  and  _137
REMARK   55  A    between atoms: _137  and  _138
REMARK   56  A    between atoms: _141  and  _143
REMARK   57  A    between atoms: _143  and  _144
REMARK   58  A    between atoms: _143  and  _146
REMARK   59  A    between atoms: _146  and  _147
REMARK   60  A    between atoms: _147  and  _148
REMARK   61  A    between atoms: _151  and  _153
REMARK   62  A    between atoms: _153  and  _154
REMARK   63  A    between atoms: _153  and  _156
REMARK   64  A    between atoms: _156  and  _157
REMARK   65  A    between atoms: _160  and  _162
REMARK   66  A    between atoms: _162  and  _163
REMARK   67  A    between atoms: _162  and  _165
REMARK   68  A    between atoms: _165  and  _166
REMARK   69  A    between atoms: _176  and  _178
REMARK   70  A    between atoms: _178  and  _179
REMARK   71  A    between atoms: _178  and  _181
REMARK   72  A    between atoms: _181  and  _182
REMARK   73  A    between atoms: _185  and  _187
REMARK   74  A    between atoms: _187  and  _188
REMARK   75  A    between atoms: _187  and  _190
REMARK   76  A    between atoms: _190  and  _191
REMARK   77  A    between atoms: _191  and  _192
REMARK   78  A    between atoms: _197  and  _199
REMARK   79  A    between atoms: _199  and  _200
REMARK   80  A    between atoms: _199  and  _202
REMARK   81  A    between atoms: _205  and  _207
REMARK   82  A    between atoms: _207  and  _208
REMARK   83  A    between atoms: _207  and  _210
REMARK   84  A    between atoms: _210  and  _211
REMARK   85  A    between atoms: _221  and  _223
REMARK   86  A    between atoms: _223  and  _224
REMARK   87  A    between atoms: _223  and  _226
REMARK   88  A    between atoms: _226  and  _227
REMARK   89  A    between atoms: _230  and  _232
REMARK   90  A    between atoms: _232  and  _233
REMARK   91  A    between atoms: _232  and  _235
REMARK   92  A    between atoms: _235  and  _236
REMARK   93  A    between atoms: _239  and  _241
REMARK   94  A    between atoms: _241  and  _242
REMARK   95  A    between atoms: _241  and  _244
REMARK   96  A    between atoms: _244  and  _245
REMARK   97  A    between atoms: _247  and  _249
REMARK   98  A    between atoms: _249  and  _250
REMARK   99  A    between atoms: _249  and  _252
REMARK  100  A    between atoms: _252  and  _253
REMARK  101  A    between atoms: _258  and  _259
REMARK  102  A    between atoms: _261  and  _263
REMARK  103  A    between atoms: _263  and  _264
REMARK  104  A    between atoms: _263  and  _266
REMARK  105  A    between atoms: _266  and  _267
REMARK  106  A    between atoms: _272  and  _273
REMARK  107  A    between atoms: _275  and  _277
REMARK  108  A    between atoms: _277  and  _278
REMARK  109  A    between atoms: _277  and  _280
REMARK  110  A    between atoms: _280  and  _281
REMARK  111  A    between atoms: _284  and  _286
REMARK  112  A    between atoms: _286  and  _287
REMARK  113  A    between atoms: _286  and  _289
REMARK  114  A    between atoms: _289  and  _290
REMARK  115  A    between atoms: _300  and  _302
REMARK  116  A    between atoms: _302  and  _303
REMARK  117  A    between atoms: _302  and  _305
REMARK  118  A    between atoms: _305  and  _306
REMARK  119  A    between atoms: _311  and  _313
REMARK  120  A    between atoms: _313  and  _314
REMARK  121  A    between atoms: _313  and  _316
REMARK  122  A    between atoms: _316  and  _317
REMARK  123  A    between atoms: _327  and  _329
REMARK  124  A    between atoms: _329  and  _330
REMARK  125  A    between atoms: _329  and  _332
REMARK  126  A    between atoms: _334  and  _336
REMARK  127  A    between atoms: _336  and  _337
REMARK  128  A    between atoms: _336  and  _339
REMARK  129  A    between atoms: _339  and  _340
REMARK  130  A    between atoms: _342  and  _344
REMARK  131  A    between atoms: _344  and  _345
REMARK  132  A    between atoms: _348  and  _350
REMARK  133  A    between atoms: _350  and  _351
REMARK  134  A    between atoms: _350  and  _353
REMARK  135  A    between atoms: _353  and  _354
REMARK  136  A    between atoms: _364  and  _366
REMARK  137  A    between atoms: _366  and  _367
REMARK  138  A    between atoms: _366  and  _369
REMARK  139  A    between atoms: _369  and  _370
REMARK  140  A    between atoms: _370  and  _371
REMARK                            x       y       z     vdW  Elec       q    Type
REMARK                         _______ _______ _______ _____ _____    ______ ____
ROOT
ATOM      1  O   HOH     1     -40.684   1.023 190.866  0.00  0.00    +0.000 OA
ENDROOT
TORSDOF 0
REMARK  Name = ../refined-set-2016/3wmc/3wmc_pocket.pdb
REMARK  140 active torsions:
REMARK  status: ('A' for Active; 'I' for Inactive)
REMARK    1  A    between atoms: _1  and  _3
REMARK    2  A    between atoms: _3  and  _4
REMARK    3  A    between atoms: _3  and  _6
REMARK    4  A    between atoms: _6  and  _7
REMARK    5  A    between atoms: _10  and  _12
REMARK    6  A    between atoms: _12  and  _13
REMARK    7  A    between atoms: _12  and  _15
REMARK    8  A    between atoms: _15  and  _16
REMARK    9  A    between atoms: _16  and  _17
REMARK   10  A    between atoms: _17  and  _18
REMARK   11  A    between atoms: _27  and  _29
REMARK   12  A    between atoms: _29  and  _30
REMARK   13  A    between atoms: _29  and  _32
REMARK   14  A    between atoms: _32  and  _33
REMARK   15  A    between atoms: _38  and  _40
REMARK   16  A    between atoms: _40  and  _41
REMARK   17  A    between atoms: _40  and  _43
REMARK   18  A    between atoms: _43  and  _44
REMARK   19  A    between atoms: _47  and  _49
REMARK   20  A    between atoms: _49  and  _50
REMARK   21  A    between atoms: _49  and  _52
REMARK   22  A    between atoms: _52  and  _53
REMARK   23  A    between atoms: _53  and  _54
REMARK   24  A    between atoms: _57  and  _59
REMARK   25  A    between atoms: _59  and  _60
REMARK   26  A    between atoms: _59  and  _62
REMARK   27  A    between atoms: _62  and  _63
REMARK   28  A    between atoms: _66  and  _68
REMARK   29  A    between atoms: _68  and  _69
REMARK   30  A    between atoms: _68  and  _71
REMARK   31  A    between atoms: _71  and  _72
REMARK   32  A    between atoms: _77  and  _79
REMARK   33  A    between atoms: _79  and  _80
REMARK   34  A    between atoms: _79  and  _82
REMARK   35  A    between atoms: _82  and  _83
REMARK   36  A    between atoms: _93  and  _95
REMARK   37  A    between atoms: _95  and  _96
REMARK   38  A    between atoms: _95  and  _98
REMARK   39  A    between atoms: _101  and  _103
REMARK   40  A    between atoms: _103  and  _104
REMARK   41  A    between atoms: _103  and  _106
REMARK   42  A    between atoms: _106  and  _107
REMARK   43  A    between atoms: _107  and  _108
REMARK   44  A    between atoms: _111  and  _113
REMARK   45  A    between atoms: _113  and  _114
REMARK   46  A    between atoms: _113  and  _116
REMARK   47  A    between atoms: _116  and  _117
REMARK   48  A    between atoms: _122  and  _124
REMARK   49  A    between atoms: _124  and  _125
REMARK   50  A    between atoms: _127  and  _129
REMARK   51  A    between atoms: _129  and  _130
REMARK   52  A    between atoms: _132  and  _134
REMARK   53  A    between atoms: _134  and  _135
REMARK   54  A    between atoms: _134  and  _137
REMARK   55  A    between atoms: _137  and  _138
REMARK   56  A    between atoms: _141  and  _143
REMARK   57  A    between atoms: _143  and  _144
REMARK   58  A    between atoms: _143  and  _146
REMARK   59  A    between atoms: _146  and  _147
REMARK   60  A    between atoms: _147  and  _148
REMARK   61  A    between atoms: _151  and  _153
REMARK   62  A    between atoms: _153  and  _154
REMARK   63  A    between atoms: _153  and  _156
REMARK   64  A    between atoms: _156  and  _157
REMARK   65  A    between atoms: _160  and  _162
REMARK   66  A    between atoms: _162  and  _163
REMARK   67  A    between atoms: _162  and  _165
REMARK   68  A    between atoms: _165  and  _166
REMARK   69  A    between atoms: _176  and  _178
REMARK   70  A    between atoms: _178  and  _179
REMARK   71  A    between atoms: _178  and  _181
REMARK   72  A    between atoms: _181  and  _182
REMARK   73  A    between atoms: _185  and  _187
REMARK   74  A    between atoms: _187  and  _188
REMARK   75  A    between atoms: _187  and  _190
REMARK   76  A    between atoms: _190  and  _191
REMARK   77  A    between atoms: _191  and  _192
REMARK   78  A    between atoms: _197  and  _199
REMARK   79  A    between atoms: _199  and  _200
REMARK   80  A    between atoms: _199  and  _202
REMARK   81  A    between atoms: _205  and  _207
REMARK   82  A    between atoms: _207  and  _208
REMARK   83  A    between atoms: _207  and  _210
REMARK   84  A    between atoms: _210  and  _211
REMARK   85  A    between atoms: _221  and  _223
REMARK   86  A    between atoms: _223  and  _224
REMARK   87  A    between atoms: _223  and  _226
REMARK   88  A    between atoms: _226  and  _227
REMARK   89  A    between atoms: _230  and  _232
REMARK   90  A    between atoms: _232  and  _233
REMARK   91  A    between atoms: _232  and  _235
REMARK   92  A    between atoms: _235  and  _236
REMARK   93  A    between atoms: _239  and  _241
REMARK   94  A    between atoms: _241  and  _242
REMARK   95  A    between atoms: _241  and  _244
REMARK   96  A    between atoms: _244  and  _245
REMARK   97  A    between atoms: _247  and  _249
REMARK   98  A    between atoms: _249  and  _250
REMARK   99  A    between atoms: _249  and  _252
REMARK  100  A    between atoms: _252  and  _253
REMARK  101  A    between atoms: _258  and  _259
REMARK  102  A    between atoms: _261  and  _263
REMARK  103  A    between atoms: _263  and  _264
REMARK  104  A    between atoms: _263  and  _266
REMARK  105  A    between atoms: _266  and  _267
REMARK  106  A    between atoms: _272  and  _273
REMARK  107  A    between atoms: _275  and  _277
REMARK  108  A    between atoms: _277  and  _278
REMARK  109  A    between atoms: _277  and  _280
REMARK  110  A    between atoms: _280  and  _281
REMARK  111  A    between atoms: _284  and  _286
REMARK  112  A    between atoms: _286  and  _287
REMARK  113  A    between atoms: _286  and  _289
REMARK  114  A    between atoms: _289  and  _290
REMARK  115  A    between atoms: _300  and  _302
REMARK  116  A    between atoms: _302  and  _303
REMARK  117  A    between atoms: _302  and  _305
REMARK  118  A    between atoms: _305  and  _306
REMARK  119  A    between atoms: _311  and  _313
REMARK  120  A    between atoms: _313  and  _314
REMARK  121  A    between atoms: _313  and  _316
REMARK  122  A    between atoms: _316  and  _317
REMARK  123  A    between atoms: _327  and  _329
REMARK  124  A    between atoms: _329  and  _330
REMARK  125  A    between atoms: _329  and  _332
REMARK  126  A    between atoms: _334  and  _336
REMARK  127  A    between atoms: _336  and  _337
REMARK  128  A    between atoms: _336  and  _339
REMARK  129  A    between atoms: _339  and  _340
REMARK  130  A    between atoms: _342  and  _344
REMARK  131  A    between atoms: _344  and  _345
REMARK  132  A    between atoms: _348  and  _350
REMARK  133  A    between atoms: _350  and  _351
REMARK  134  A    between atoms: _350  and  _353
REMARK  135  A    between atoms: _353  and  _354
REMARK  136  A    between atoms: _364  and  _366
REMARK  137  A    between atoms: _366  and  _367
REMARK  138  A    between atoms: _366  and  _369
REMARK  139  A    between atoms: _369  and  _370
REMARK  140  A    between atoms: _370  and  _371
REMARK                            x       y       z     vdW  Elec       q    Type
REMARK                         _______ _______ _______ _____ _____    ______ ____
ROOT
ATOM      1  O   HOH     1     -36.217   5.210 181.761  0.00  0.00    +0.000 OA
ENDROOT
TORSDOF 0
REMARK  Name = ../refined-set-2016/3wmc/3wmc_pocket.pdb
REMARK  140 active torsions:
REMARK  status: ('A' for Active; 'I' for Inactive)
REMARK    1  A    between atoms: _1  and  _3
REMARK    2  A    between atoms: _3  and  _4
REMARK    3  A    between atoms: _3  and  _6
REMARK    4  A    between atoms: _6  and  _7
REMARK    5  A    between atoms: _10  and  _12
REMARK    6  A    between atoms: _12  and  _13
REMARK    7  A    between atoms: _12  and  _15
REMARK    8  A    between atoms: _15  and  _16
REMARK    9  A    between atoms: _16  and  _17
REMARK   10  A    between atoms: _17  and  _18
REMARK   11  A    between atoms: _27  and  _29
REMARK   12  A    between atoms: _29  and  _30
REMARK   13  A    between atoms: _29  and  _32
REMARK   14  A    between atoms: _32  and  _33
REMARK   15  A    between atoms: _38  and  _40
REMARK   16  A    between atoms: _40  and  _41
REMARK   17  A    between atoms: _40  and  _43
REMARK   18  A    between atoms: _43  and  _44
REMARK   19  A    between atoms: _47  and  _49
REMARK   20  A    between atoms: _49  and  _50
REMARK   21  A    between atoms: _49  and  _52
REMARK   22  A    between atoms: _52  and  _53
REMARK   23  A    between atoms: _53  and  _54
REMARK   24  A    between atoms: _57  and  _59
REMARK   25  A    between atoms: _59  and  _60
REMARK   26  A    between atoms: _59  and  _62
REMARK   27  A    between atoms: _62  and  _63
REMARK   28  A    between atoms: _66  and  _68
REMARK   29  A    between atoms: _68  and  _69
REMARK   30  A    between atoms: _68  and  _71
REMARK   31  A    between atoms: _71  and  _72
REMARK   32  A    between atoms: _77  and  _79
REMARK   33  A    between atoms: _79  and  _80
REMARK   34  A    between atoms: _79  and  _82
REMARK   35  A    between atoms: _82  and  _83
REMARK   36  A    between atoms: _93  and  _95
REMARK   37  A    between atoms: _95  and  _96
REMARK   38  A    between atoms: _95  and  _98
REMARK   39  A    between atoms: _101  and  _103
REMARK   40  A    between atoms: _103  and  _104
REMARK   41  A    between atoms: _103  and  _106
REMARK   42  A    between atoms: _106  and  _107
REMARK   43  A    between atoms: _107  and  _108
REMARK   44  A    between atoms: _111  and  _113
REMARK   45  A    between atoms: _113  and  _114
REMARK   46  A    between atoms: _113  and  _116
REMARK   47  A    between atoms: _116  and  _117
REMARK   48  A    between atoms: _122  and  _124
REMARK   49  A    between atoms: _124  and  _125
REMARK   50  A    between atoms: _127  and  _129
REMARK   51  A    between atoms: _129  and  _130
REMARK   52  A    between atoms: _132  and  _134
REMARK   53  A    between atoms: _134  and  _135
REMARK   54  A    between atoms: _134  and  _137
REMARK   55  A    between atoms: _137  and  _138
REMARK   56  A    between atoms: _141  and  _143
REMARK   57  A    between atoms: _143  and  _144
REMARK   58  A    between atoms: _143  and  _146
REMARK   59  A    between atoms: _146  and  _147
REMARK   60  A    between atoms: _147  and  _148
REMARK   61  A    between atoms: _151  and  _153
REMARK   62  A    between atoms: _153  and  _154
REMARK   63  A    between atoms: _153  and  _156
REMARK   64  A    between atoms: _156  and  _157
REMARK   65  A    between atoms: _160  and  _162
REMARK   66  A    between atoms: _162  and  _163
REMARK   67  A    between atoms: _162  and  _165
REMARK   68  A    between atoms: _165  and  _166
REMARK   69  A    between atoms: _176  and  _178
REMARK   70  A    between atoms: _178  and  _179
REMARK   71  A    between atoms: _178  and  _181
REMARK   72  A    between atoms: _181  and  _182
REMARK   73  A    between atoms: _185  and  _187
REMARK   74  A    between atoms: _187  and  _188
REMARK   75  A    between atoms: _187  and  _190
REMARK   76  A    between atoms: _190  and  _191
REMARK   77  A    between atoms: _191  and  _192
REMARK   78  A    between atoms: _197  and  _199
REMARK   79  A    between atoms: _199  and  _200
REMARK   80  A    between atoms: _199  and  _202
REMARK   81  A    between atoms: _205  and  _207
REMARK   82  A    between atoms: _207  and  _208
REMARK   83  A    between atoms: _207  and  _210
REMARK   84  A    between atoms: _210  and  _211
REMARK   85  A    between atoms: _221  and  _223
REMARK   86  A    between atoms: _223  and  _224
REMARK   87  A    between atoms: _223  and  _226
REMARK   88  A    between atoms: _226  and  _227
REMARK   89  A    between atoms: _230  and  _232
REMARK   90  A    between atoms: _232  and  _233
REMARK   91  A    between atoms: _232  and  _235
REMARK   92  A    between atoms: _235  and  _236
REMARK   93  A    between atoms: _239  and  _241
REMARK   94  A    between atoms: _241  and  _242
REMARK   95  A    between atoms: _241  and  _244
REMARK   96  A    between atoms: _244  and  _245
REMARK   97  A    between atoms: _247  and  _249
REMARK   98  A    between atoms: _249  and  _250
REMARK   99  A    between atoms: _249  and  _252
REMARK  100  A    between atoms: _252  and  _253
REMARK  101  A    between atoms: _258  and  _259
REMARK  102  A    between atoms: _261  and  _263
REMARK  103  A    between atoms: _263  and  _264
REMARK  104  A    between atoms: _263  and  _266
REMARK  105  A    between atoms: _266  and  _267
REMARK  106  A    between atoms: _272  and  _273
REMARK  107  A    between atoms: _275  and  _277
REMARK  108  A    between atoms: _277  and  _278
REMARK  109  A    between atoms: _277  and  _280
REMARK  110  A    between atoms: _280  and  _281
REMARK  111  A    between atoms: _284  and  _286
REMARK  112  A    between atoms: _286  and  _287
REMARK  113  A    between atoms: _286  and  _289
REMARK  114  A    between atoms: _289  and  _290
REMARK  115  A    between atoms: _300  and  _302
REMARK  116  A    between atoms: _302  and  _303
REMARK  117  A    between atoms: _302  and  _305
REMARK  118  A    between atoms: _305  and  _306
REMARK  119  A    between atoms: _311  and  _313
REMARK  120  A    between atoms: _313  and  _314
REMARK  121  A    between atoms: _313  and  _316
REMARK  122  A    between atoms: _316  and  _317
REMARK  123  A    between atoms: _327  and  _329
REMARK  124  A    between atoms: _329  and  _330
REMARK  125  A    between atoms: _329  and  _332
REMARK  126  A    between atoms: _334  and  _336
REMARK  127  A    between atoms: _336  and  _337
REMARK  128  A    between atoms: _336  and  _339
REMARK  129  A    between atoms: _339  and  _340
REMARK  130  A    between atoms: _342  and  _344
REMARK  131  A    between atoms: _344  and  _345
REMARK  132  A    between atoms: _348  and  _350
REMARK  133  A    between atoms: _350  and  _351
REMARK  134  A    between atoms: _350  and  _353
REMARK  135  A    between atoms: _353  and  _354
REMARK  136  A    between atoms: _364  and  _366
REMARK  137  A    between atoms: _366  and  _367
REMARK  138  A    between atoms: _366  and  _369
REMARK  139  A    between atoms: _369  and  _370
REMARK  140  A    between atoms: _370  and  _371
REMARK                            x       y       z     vdW  Elec       q    Type
REMARK                         _______ _______ _______ _____ _____    ______ ____
ROOT
ATOM      1  O   HOH     1     -35.670   5.647 197.050  0.00  0.00    +0.000 OA
ENDROOT
TORSDOF 0
REMARK  Name = ../refined-set-2016/3wmc/3wmc_pocket.pdb
REMARK  140 active torsions:
REMARK  status: ('A' for Active; 'I' for Inactive)
REMARK    1  A    between atoms: _1  and  _3
REMARK    2  A    between atoms: _3  and  _4
REMARK    3  A    between atoms: _3  and  _6
REMARK    4  A    between atoms: _6  and  _7
REMARK    5  A    between atoms: _10  and  _12
REMARK    6  A    between atoms: _12  and  _13
REMARK    7  A    between atoms: _12  and  _15
REMARK    8  A    between atoms: _15  and  _16
REMARK    9  A    between atoms: _16  and  _17
REMARK   10  A    between atoms: _17  and  _18
REMARK   11  A    between atoms: _27  and  _29
REMARK   12  A    between atoms: _29  and  _30
REMARK   13  A    between atoms: _29  and  _32
REMARK   14  A    between atoms: _32  and  _33
REMARK   15  A    between atoms: _38  and  _40
REMARK   16  A    between atoms: _40  and  _41
REMARK   17  A    between atoms: _40  and  _43
REMARK   18  A    between atoms: _43  and  _44
REMARK   19  A    between atoms: _47  and  _49
REMARK   20  A    between atoms: _49  and  _50
REMARK   21  A    between atoms: _49  and  _52
REMARK   22  A    between atoms: _52  and  _53
REMARK   23  A    between atoms: _53  and  _54
REMARK   24  A    between atoms: _57  and  _59
REMARK   25  A    between atoms: _59  and  _60
REMARK   26  A    between atoms: _59  and  _62
REMARK   27  A    between atoms: _62  and  _63
REMARK   28  A    between atoms: _66  and  _68
REMARK   29  A    between atoms: _68  and  _69
REMARK   30  A    between atoms: _68  and  _71
REMARK   31  A    between atoms: _71  and  _72
REMARK   32  A    between atoms: _77  and  _79
REMARK   33  A    between atoms: _79  and  _80
REMARK   34  A    between atoms: _79  and  _82
REMARK   35  A    between atoms: _82  and  _83
REMARK   36  A    between atoms: _93  and  _95
REMARK   37  A    between atoms: _95  and  _96
REMARK   38  A    between atoms: _95  and  _98
REMARK   39  A    between atoms: _101  and  _103
REMARK   40  A    between atoms: _103  and  _104
REMARK   41  A    between atoms: _103  and  _106
REMARK   42  A    between atoms: _106  and  _107
REMARK   43  A    between atoms: _107  and  _108
REMARK   44  A    between atoms: _111  and  _113
REMARK   45  A    between atoms: _113  and  _114
REMARK   46  A    between atoms: _113  and  _116
REMARK   47  A    between atoms: _116  and  _117
REMARK   48  A    between atoms: _122  and  _124
REMARK   49  A    between atoms: _124  and  _125
REMARK   50  A    between atoms: _127  and  _129
REMARK   51  A    between atoms: _129  and  _130
REMARK   52  A    between atoms: _132  and  _134
REMARK   53  A    between atoms: _134  and  _135
REMARK   54  A    between atoms: _134  and  _137
REMARK   55  A    between atoms: _137  and  _138
REMARK   56  A    between atoms: _141  and  _143
REMARK   57  A    between atoms: _143  and  _144
REMARK   58  A    between atoms: _143  and  _146
REMARK   59  A    between atoms: _146  and  _147
REMARK   60  A    between atoms: _147  and  _148
REMARK   61  A    between atoms: _151  and  _153
REMARK   62  A    between atoms: _153  and  _154
REMARK   63  A    between atoms: _153  and  _156
REMARK   64  A    between atoms: _156  and  _157
REMARK   65  A    between atoms: _160  and  _162
REMARK   66  A    between atoms: _162  and  _163
REMARK   67  A    between atoms: _162  and  _165
REMARK   68  A    between atoms: _165  and  _166
REMARK   69  A    between atoms: _176  and  _178
REMARK   70  A    between atoms: _178  and  _179
REMARK   71  A    between atoms: _178  and  _181
REMARK   72  A    between atoms: _181  and  _182
REMARK   73  A    between atoms: _185  and  _187
REMARK   74  A    between atoms: _187  and  _188
REMARK   75  A    between atoms: _187  and  _190
REMARK   76  A    between atoms: _190  and  _191
REMARK   77  A    between atoms: _191  and  _192
REMARK   78  A    between atoms: _197  and  _199
REMARK   79  A    between atoms: _199  and  _200
REMARK   80  A    between atoms: _199  and  _202
REMARK   81  A    between atoms: _205  and  _207
REMARK   82  A    between atoms: _207  and  _208
REMARK   83  A    between atoms: _207  and  _210
REMARK   84  A    between atoms: _210  and  _211
REMARK   85  A    between atoms: _221  and  _223
REMARK   86  A    between atoms: _223  and  _224
REMARK   87  A    between atoms: _223  and  _226
REMARK   88  A    between atoms: _226  and  _227
REMARK   89  A    between atoms: _230  and  _232
REMARK   90  A    between atoms: _232  and  _233
REMARK   91  A    between atoms: _232  and  _235
REMARK   92  A    between atoms: _235  and  _236
REMARK   93  A    between atoms: _239  and  _241
REMARK   94  A    between atoms: _241  and  _242
REMARK   95  A    between atoms: _241  and  _244
REMARK   96  A    between atoms: _244  and  _245
REMARK   97  A    between atoms: _247  and  _249
REMARK   98  A    between atoms: _249  and  _250
REMARK   99  A    between atoms: _249  and  _252
REMARK  100  A    between atoms: _252  and  _253
REMARK  101  A    between atoms: _258  and  _259
REMARK  102  A    between atoms: _261  and  _263
REMARK  103  A    between atoms: _263  and  _264
REMARK  104  A    between atoms: _263  and  _266
REMARK  105  A    between atoms: _266  and  _267
REMARK  106  A    between atoms: _272  and  _273
REMARK  107  A    between atoms: _275  and  _277
REMARK  108  A    between atoms: _277  and  _278
REMARK  109  A    between atoms: _277  and  _280
REMARK  110  A    between atoms: _280  and  _281
REMARK  111  A    between atoms: _284  and  _286
REMARK  112  A    between atoms: _286  and  _287
REMARK  113  A    between atoms: _286  and  _289
REMARK  114  A    between atoms: _289  and  _290
REMARK  115  A    between atoms: _300  and  _302
REMARK  116  A    between atoms: _302  and  _303
REMARK  117  A    between atoms: _302  and  _305
REMARK  118  A    between atoms: _305  and  _306
REMARK  119  A    between atoms: _311  and  _313
REMARK  120  A    between atoms: _313  and  _314
REMARK  121  A    between atoms: _313  and  _316
REMARK  122  A    between atoms: _316  and  _317
REMARK  123  A    between atoms: _327  and  _329
REMARK  124  A    between atoms: _329  and  _330
REMARK  125  A    between atoms: _329  and  _332
REMARK  126  A    between atoms: _334  and  _336
REMARK  127  A    between atoms: _336  and  _337
REMARK  128  A    between atoms: _336  and  _339
REMARK  129  A    between atoms: _339  and  _340
REMARK  130  A    between atoms: _342  and  _344
REMARK  131  A    between atoms: _344  and  _345
REMARK  132  A    between atoms: _348  and  _350
REMARK  133  A    between atoms: _350  and  _351
REMARK  134  A    between atoms: _350  and  _353
REMARK  135  A    between atoms: _353  and  _354
REMARK  136  A    between atoms: _364  and  _366
REMARK  137  A    between atoms: _366  and  _367
REMARK  138  A    between atoms: _366  and  _369
REMARK  139  A    between atoms: _369  and  _370
REMARK  140  A    between atoms: _370  and  _371
REMARK                            x       y       z     vdW  Elec       q    Type
REMARK                         _______ _______ _______ _____ _____    ______ ____
ROOT
ATOM      1  O   HOH     1     -38.311  -4.072 193.482  0.00  0.00    +0.000 OA
ENDROOT
TORSDOF 0
REMARK  Name = ../refined-set-2016/3wmc/3wmc_pocket.pdb
REMARK  140 active torsions:
REMARK  status: ('A' for Active; 'I' for Inactive)
REMARK    1  A    between atoms: _1  and  _3
REMARK    2  A    between atoms: _3  and  _4
REMARK    3  A    between atoms: _3  and  _6
REMARK    4  A    between atoms: _6  and  _7
REMARK    5  A    between atoms: _10  and  _12
REMARK    6  A    between atoms: _12  and  _13
REMARK    7  A    between atoms: _12  and  _15
REMARK    8  A    between atoms: _15  and  _16
REMARK    9  A    between atoms: _16  and  _17
REMARK   10  A    between atoms: _17  and  _18
REMARK   11  A    between atoms: _27  and  _29
REMARK   12  A    between atoms: _29  and  _30
REMARK   13  A    between atoms: _29  and  _32
REMARK   14  A    between atoms: _32  and  _33
REMARK   15  A    between atoms: _38  and  _40
REMARK   16  A    between atoms: _40  and  _41
REMARK   17  A    between atoms: _40  and  _43
REMARK   18  A    between atoms: _43  and  _44
REMARK   19  A    between atoms: _47  and  _49
REMARK   20  A    between atoms: _49  and  _50
REMARK   21  A    between atoms: _49  and  _52
REMARK   22  A    between atoms: _52  and  _53
REMARK   23  A    between atoms: _53  and  _54
REMARK   24  A    between atoms: _57  and  _59
REMARK   25  A    between atoms: _59  and  _60
REMARK   26  A    between atoms: _59  and  _62
REMARK   27  A    between atoms: _62  and  _63
REMARK   28  A    between atoms: _66  and  _68
REMARK   29  A    between atoms: _68  and  _69
REMARK   30  A    between atoms: _68  and  _71
REMARK   31  A    between atoms: _71  and  _72
REMARK   32  A    between atoms: _77  and  _79
REMARK   33  A    between atoms: _79  and  _80
REMARK   34  A    between atoms: _79  and  _82
REMARK   35  A    between atoms: _82  and  _83
REMARK   36  A    between atoms: _93  and  _95
REMARK   37  A    between atoms: _95  and  _96
REMARK   38  A    between atoms: _95  and  _98
REMARK   39  A    between atoms: _101  and  _103
REMARK   40  A    between atoms: _103  and  _104
REMARK   41  A    between atoms: _103  and  _106
REMARK   42  A    between atoms: _106  and  _107
REMARK   43  A    between atoms: _107  and  _108
REMARK   44  A    between atoms: _111  and  _113
REMARK   45  A    between atoms: _113  and  _114
REMARK   46  A    between atoms: _113  and  _116
REMARK   47  A    between atoms: _116  and  _117
REMARK   48  A    between atoms: _122  and  _124
REMARK   49  A    between atoms: _124  and  _125
REMARK   50  A    between atoms: _127  and  _129
REMARK   51  A    between atoms: _129  and  _130
REMARK   52  A    between atoms: _132  and  _134
REMARK   53  A    between atoms: _134  and  _135
REMARK   54  A    between atoms: _134  and  _137
REMARK   55  A    between atoms: _137  and  _138
REMARK   56  A    between atoms: _141  and  _143
REMARK   57  A    between atoms: _143  and  _144
REMARK   58  A    between atoms: _143  and  _146
REMARK   59  A    between atoms: _146  and  _147
REMARK   60  A    between atoms: _147  and  _148
REMARK   61  A    between atoms: _151  and  _153
REMARK   62  A    between atoms: _153  and  _154
REMARK   63  A    between atoms: _153  and  _156
REMARK   64  A    between atoms: _156  and  _157
REMARK   65  A    between atoms: _160  and  _162
REMARK   66  A    between atoms: _162  and  _163
REMARK   67  A    between atoms: _162  and  _165
REMARK   68  A    between atoms: _165  and  _166
REMARK   69  A    between atoms: _176  and  _178
REMARK   70  A    between atoms: _178  and  _179
REMARK   71  A    between atoms: _178  and  _181
REMARK   72  A    between atoms: _181  and  _182
REMARK   73  A    between atoms: _185  and  _187
REMARK   74  A    between atoms: _187  and  _188
REMARK   75  A    between atoms: _187  and  _190
REMARK   76  A    between atoms: _190  and  _191
REMARK   77  A    between atoms: _191  and  _192
REMARK   78  A    between atoms: _197  and  _199
REMARK   79  A    between atoms: _199  and  _200
REMARK   80  A    between atoms: _199  and  _202
REMARK   81  A    between atoms: _205  and  _207
REMARK   82  A    between atoms: _207  and  _208
REMARK   83  A    between atoms: _207  and  _210
REMARK   84  A    between atoms: _210  and  _211
REMARK   85  A    between atoms: _221  and  _223
REMARK   86  A    between atoms: _223  and  _224
REMARK   87  A    between atoms: _223  and  _226
REMARK   88  A    between atoms: _226  and  _227
REMARK   89  A    between atoms: _230  and  _232
REMARK   90  A    between atoms: _232  and  _233
REMARK   91  A    between atoms: _232  and  _235
REMARK   92  A    between atoms: _235  and  _236
REMARK   93  A    between atoms: _239  and  _241
REMARK   94  A    between atoms: _241  and  _242
REMARK   95  A    between atoms: _241  and  _244
REMARK   96  A    between atoms: _244  and  _245
REMARK   97  A    between atoms: _247  and  _249
REMARK   98  A    between atoms: _249  and  _250
REMARK   99  A    between atoms: _249  and  _252
REMARK  100  A    between atoms: _252  and  _253
REMARK  101  A    between atoms: _258  and  _259
REMARK  102  A    between atoms: _261  and  _263
REMARK  103  A    between atoms: _263  and  _264
REMARK  104  A    between atoms: _263  and  _266
REMARK  105  A    between atoms: _266  and  _267
REMARK  106  A    between atoms: _272  and  _273
REMARK  107  A    between atoms: _275  and  _277
REMARK  108  A    between atoms: _277  and  _278
REMARK  109  A    between atoms: _277  and  _280
REMARK  110  A    between atoms: _280  and  _281
REMARK  111  A    between atoms: _284  and  _286
REMARK  112  A    between atoms: _286  and  _287
REMARK  113  A    between atoms: _286  and  _289
REMARK  114  A    between atoms: _289  and  _290
REMARK  115  A    between atoms: _300  and  _302
REMARK  116  A    between atoms: _302  and  _303
REMARK  117  A    between atoms: _302  and  _305
REMARK  118  A    between atoms: _305  and  _306
REMARK  119  A    between atoms: _311  and  _313
REMARK  120  A    between atoms: _313  and  _314
REMARK  121  A    between atoms: _313  and  _316
REMARK  122  A    between atoms: _316  and  _317
REMARK  123  A    between atoms: _327  and  _329
REMARK  124  A    between atoms: _329  and  _330
REMARK  125  A    between atoms: _329  and  _332
REMARK  126  A    between atoms: _334  and  _336
REMARK  127  A    between atoms: _336  and  _337
REMARK  128  A    between atoms: _336  and  _339
REMARK  129  A    between atoms: _339  and  _340
REMARK  130  A    between atoms: _342  and  _344
REMARK  131  A    between atoms: _344  and  _345
REMARK  132  A    between atoms: _348  and  _350
REMARK  133  A    between atoms: _350  and  _351
REMARK  134  A    between atoms: _350  and  _353
REMARK  135  A    between atoms: _353  and  _354
REMARK  136  A    between atoms: _364  and  _366
REMARK  137  A    between atoms: _366  and  _367
REMARK  138  A    between atoms: _366  and  _369
REMARK  139  A    between atoms: _369  and  _370
REMARK  140  A    between atoms: _370  and  _371
REMARK                            x       y       z     vdW  Elec       q    Type
REMARK                         _______ _______ _______ _____ _____    ______ ____
ROOT
ATOM      1  O   HOH     1     -30.152   9.052 189.473  0.00  0.00    +0.000 OA
ENDROOT
TORSDOF 0
REMARK  Name = ../refined-set-2016/3wmc/3wmc_pocket.pdb
REMARK  140 active torsions:
REMARK  status: ('A' for Active; 'I' for Inactive)
REMARK    1  A    between atoms: _1  and  _3
REMARK    2  A    between atoms: _3  and  _4
REMARK    3  A    between atoms: _3  and  _6
REMARK    4  A    between atoms: _6  and  _7
REMARK    5  A    between atoms: _10  and  _12
REMARK    6  A    between atoms: _12  and  _13
REMARK    7  A    between atoms: _12  and  _15
REMARK    8  A    between atoms: _15  and  _16
REMARK    9  A    between atoms: _16  and  _17
REMARK   10  A    between atoms: _17  and  _18
REMARK   11  A    between atoms: _27  and  _29
REMARK   12  A    between atoms: _29  and  _30
REMARK   13  A    between atoms: _29  and  _32
REMARK   14  A    between atoms: _32  and  _33
REMARK   15  A    between atoms: _38  and  _40
REMARK   16  A    between atoms: _40  and  _41
REMARK   17  A    between atoms: _40  and  _43
REMARK   18  A    between atoms: _43  and  _44
REMARK   19  A    between atoms: _47  and  _49
REMARK   20  A    between atoms: _49  and  _50
REMARK   21  A    between atoms: _49  and  _52
REMARK   22  A    between atoms: _52  and  _53
REMARK   23  A    between atoms: _53  and  _54
REMARK   24  A    between atoms: _57  and  _59
REMARK   25  A    between atoms: _59  and  _60
REMARK   26  A    between atoms: _59  and  _62
REMARK   27  A    between atoms: _62  and  _63
REMARK   28  A    between atoms: _66  and  _68
REMARK   29  A    between atoms: _68  and  _69
REMARK   30  A    between atoms: _68  and  _71
REMARK   31  A    between atoms: _71  and  _72
REMARK   32  A    between atoms: _77  and  _79
REMARK   33  A    between atoms: _79  and  _80
REMARK   34  A    between atoms: _79  and  _82
REMARK   35  A    between atoms: _82  and  _83
REMARK   36  A    between atoms: _93  and  _95
REMARK   37  A    between atoms: _95  and  _96
REMARK   38  A    between atoms: _95  and  _98
REMARK   39  A    between atoms: _101  and  _103
REMARK   40  A    between atoms: _103  and  _104
REMARK   41  A    between atoms: _103  and  _106
REMARK   42  A    between atoms: _106  and  _107
REMARK   43  A    between atoms: _107  and  _108
REMARK   44  A    between atoms: _111  and  _113
REMARK   45  A    between atoms: _113  and  _114
REMARK   46  A    between atoms: _113  and  _116
REMARK   47  A    between atoms: _116  and  _117
REMARK   48  A    between atoms: _122  and  _124
REMARK   49  A    between atoms: _124  and  _125
REMARK   50  A    between atoms: _127  and  _129
REMARK   51  A    between atoms: _129  and  _130
REMARK   52  A    between atoms: _132  and  _134
REMARK   53  A    between atoms: _134  and  _135
REMARK   54  A    between atoms: _134  and  _137
REMARK   55  A    between atoms: _137  and  _138
REMARK   56  A    between atoms: _141  and  _143
REMARK   57  A    between atoms: _143  and  _144
REMARK   58  A    between atoms: _143  and  _146
REMARK   59  A    between atoms: _146  and  _147
REMARK   60  A    between atoms: _147  and  _148
REMARK   61  A    between atoms: _151  and  _153
REMARK   62  A    between atoms: _153  and  _154
REMARK   63  A    between atoms: _153  and  _156
REMARK   64  A    between atoms: _156  and  _157
REMARK   65  A    between atoms: _160  and  _162
REMARK   66  A    between atoms: _162  and  _163
REMARK   67  A    between atoms: _162  and  _165
REMARK   68  A    between atoms: _165  and  _166
REMARK   69  A    between atoms: _176  and  _178
REMARK   70  A    between atoms: _178  and  _179
REMARK   71  A    between atoms: _178  and  _181
REMARK   72  A    between atoms: _181  and  _182
REMARK   73  A    between atoms: _185  and  _187
REMARK   74  A    between atoms: _187  and  _188
REMARK   75  A    between atoms: _187  and  _190
REMARK   76  A    between atoms: _190  and  _191
REMARK   77  A    between atoms: _191  and  _192
REMARK   78  A    between atoms: _197  and  _199
REMARK   79  A    between atoms: _199  and  _200
REMARK   80  A    between atoms: _199  and  _202
REMARK   81  A    between atoms: _205  and  _207
REMARK   82  A    between atoms: _207  and  _208
REMARK   83  A    between atoms: _207  and  _210
REMARK   84  A    between atoms: _210  and  _211
REMARK   85  A    between atoms: _221  and  _223
REMARK   86  A    between atoms: _223  and  _224
REMARK   87  A    between atoms: _223  and  _226
REMARK   88  A    between atoms: _226  and  _227
REMARK   89  A    between atoms: _230  and  _232
REMARK   90  A    between atoms: _232  and  _233
REMARK   91  A    between atoms: _232  and  _235
REMARK   92  A    between atoms: _235  and  _236
REMARK   93  A    between atoms: _239  and  _241
REMARK   94  A    between atoms: _241  and  _242
REMARK   95  A    between atoms: _241  and  _244
REMARK   96  A    between atoms: _244  and  _245
REMARK   97  A    between atoms: _247  and  _249
REMARK   98  A    between atoms: _249  and  _250
REMARK   99  A    between atoms: _249  and  _252
REMARK  100  A    between atoms: _252  and  _253
REMARK  101  A    between atoms: _258  and  _259
REMARK  102  A    between atoms: _261  and  _263
REMARK  103  A    between atoms: _263  and  _264
REMARK  104  A    between atoms: _263  and  _266
REMARK  105  A    between atoms: _266  and  _267
REMARK  106  A    between atoms: _272  and  _273
REMARK  107  A    between atoms: _275  and  _277
REMARK  108  A    between atoms: _277  and  _278
REMARK  109  A    between atoms: _277  and  _280
REMARK  110  A    between atoms: _280  and  _281
REMARK  111  A    between atoms: _284  and  _286
REMARK  112  A    between atoms: _286  and  _287
REMARK  113  A    between atoms: _286  and  _289
REMARK  114  A    between atoms: _289  and  _290
REMARK  115  A    between atoms: _300  and  _302
REMARK  116  A    between atoms: _302  and  _303
REMARK  117  A    between atoms: _302  and  _305
REMARK  118  A    between atoms: _305  and  _306
REMARK  119  A    between atoms: _311  and  _313
REMARK  120  A    between atoms: _313  and  _314
REMARK  121  A    between atoms: _313  and  _316
REMARK  122  A    between atoms: _316  and  _317
REMARK  123  A    between atoms: _327  and  _329
REMARK  124  A    between atoms: _329  and  _330
REMARK  125  A    between atoms: _329  and  _332
REMARK  126  A    between atoms: _334  and  _336
REMARK  127  A    between atoms: _336  and  _337
REMARK  128  A    between atoms: _336  and  _339
REMARK  129  A    between atoms: _339  and  _340
REMARK  130  A    between atoms: _342  and  _344
REMARK  131  A    between atoms: _344  and  _345
REMARK  132  A    between atoms: _348  and  _350
REMARK  133  A    between atoms: _350  and  _351
REMARK  134  A    between atoms: _350  and  _353
REMARK  135  A    between atoms: _353  and  _354
REMARK  136  A    between atoms: _364  and  _366
REMARK  137  A    between atoms: _366  and  _367
REMARK  138  A    between atoms: _366  and  _369
REMARK  139  A    between atoms: _369  and  _370
REMARK  140  A    between atoms: _370  and  _371
REMARK                            x       y       z     vdW  Elec       q    Type
REMARK                         _______ _______ _______ _____ _____    ______ ____
ROOT
ATOM      1  O   HOH     1     -34.199   0.690 184.443  0.00  0.00    +0.000 OA
ENDROOT
TORSDOF 0
REMARK  Name = ../refined-set-2016/3wmc/3wmc_pocket.pdb
REMARK  140 active torsions:
REMARK  status: ('A' for Active; 'I' for Inactive)
REMARK    1  A    between atoms: _1  and  _3
REMARK    2  A    between atoms: _3  and  _4
REMARK    3  A    between atoms: _3  and  _6
REMARK    4  A    between atoms: _6  and  _7
REMARK    5  A    between atoms: _10  and  _12
REMARK    6  A    between atoms: _12  and  _13
REMARK    7  A    between atoms: _12  and  _15
REMARK    8  A    between atoms: _15  and  _16
REMARK    9  A    between atoms: _16  and  _17
REMARK   10  A    between atoms: _17  and  _18
REMARK   11  A    between atoms: _27  and  _29
REMARK   12  A    between atoms: _29  and  _30
REMARK   13  A    between atoms: _29  and  _32
REMARK   14  A    between atoms: _32  and  _33
REMARK   15  A    between atoms: _38  and  _40
REMARK   16  A    between atoms: _40  and  _41
REMARK   17  A    between atoms: _40  and  _43
REMARK   18  A    between atoms: _43  and  _44
REMARK   19  A    between atoms: _47  and  _49
REMARK   20  A    between atoms: _49  and  _50
REMARK   21  A    between atoms: _49  and  _52
REMARK   22  A    between atoms: _52  and  _53
REMARK   23  A    between atoms: _53  and  _54
REMARK   24  A    between atoms: _57  and  _59
REMARK   25  A    between atoms: _59  and  _60
REMARK   26  A    between atoms: _59  and  _62
REMARK   27  A    between atoms: _62  and  _63
REMARK   28  A    between atoms: _66  and  _68
REMARK   29  A    between atoms: _68  and  _69
REMARK   30  A    between atoms: _68  and  _71
REMARK   31  A    between atoms: _71  and  _72
REMARK   32  A    between atoms: _77  and  _79
REMARK   33  A    between atoms: _79  and  _80
REMARK   34  A    between atoms: _79  and  _82
REMARK   35  A    between atoms: _82  and  _83
REMARK   36  A    between atoms: _93  and  _95
REMARK   37  A    between atoms: _95  and  _96
REMARK   38  A    between atoms: _95  and  _98
REMARK   39  A    between atoms: _101  and  _103
REMARK   40  A    between atoms: _103  and  _104
REMARK   41  A    between atoms: _103  and  _106
REMARK   42  A    between atoms: _106  and  _107
REMARK   43  A    between atoms: _107  and  _108
REMARK   44  A    between atoms: _111  and  _113
REMARK   45  A    between atoms: _113  and  _114
REMARK   46  A    between atoms: _113  and  _116
REMARK   47  A    between atoms: _116  and  _117
REMARK   48  A    between atoms: _122  and  _124
REMARK   49  A    between atoms: _124  and  _125
REMARK   50  A    between atoms: _127  and  _129
REMARK   51  A    between atoms: _129  and  _130
REMARK   52  A    between atoms: _132  and  _134
REMARK   53  A    between atoms: _134  and  _135
REMARK   54  A    between atoms: _134  and  _137
REMARK   55  A    between atoms: _137  and  _138
REMARK   56  A    between atoms: _141  and  _143
REMARK   57  A    between atoms: _143  and  _144
REMARK   58  A    between atoms: _143  and  _146
REMARK   59  A    between atoms: _146  and  _147
REMARK   60  A    between atoms: _147  and  _148
REMARK   61  A    between atoms: _151  and  _153
REMARK   62  A    between atoms: _153  and  _154
REMARK   63  A    between atoms: _153  and  _156
REMARK   64  A    between atoms: _156  and  _157
REMARK   65  A    between atoms: _160  and  _162
REMARK   66  A    between atoms: _162  and  _163
REMARK   67  A    between atoms: _162  and  _165
REMARK   68  A    between atoms: _165  and  _166
REMARK   69  A    between atoms: _176  and  _178
REMARK   70  A    between atoms: _178  and  _179
REMARK   71  A    between atoms: _178  and  _181
REMARK   72  A    between atoms: _181  and  _182
REMARK   73  A    between atoms: _185  and  _187
REMARK   74  A    between atoms: _187  and  _188
REMARK   75  A    between atoms: _187  and  _190
REMARK   76  A    between atoms: _190  and  _191
REMARK   77  A    between atoms: _191  and  _192
REMARK   78  A    between atoms: _197  and  _199
REMARK   79  A    between atoms: _199  and  _200
REMARK   80  A    between atoms: _199  and  _202
REMARK   81  A    between atoms: _205  and  _207
REMARK   82  A    between atoms: _207  and  _208
REMARK   83  A    between atoms: _207  and  _210
REMARK   84  A    between atoms: _210  and  _211
REMARK   85  A    between atoms: _221  and  _223
REMARK   86  A    between atoms: _223  and  _224
REMARK   87  A    between atoms: _223  and  _226
REMARK   88  A    between atoms: _226  and  _227
REMARK   89  A    between atoms: _230  and  _232
REMARK   90  A    between atoms: _232  and  _233
REMARK   91  A    between atoms: _232  and  _235
REMARK   92  A    between atoms: _235  and  _236
REMARK   93  A    between atoms: _239  and  _241
REMARK   94  A    between atoms: _241  and  _242
REMARK   95  A    between atoms: _241  and  _244
REMARK   96  A    between atoms: _244  and  _245
REMARK   97  A    between atoms: _247  and  _249
REMARK   98  A    between atoms: _249  and  _250
REMARK   99  A    between atoms: _249  and  _252
REMARK  100  A    between atoms: _252  and  _253
REMARK  101  A    between atoms: _258  and  _259
REMARK  102  A    between atoms: _261  and  _263
REMARK  103  A    between atoms: _263  and  _264
REMARK  104  A    between atoms: _263  and  _266
REMARK  105  A    between atoms: _266  and  _267
REMARK  106  A    between atoms: _272  and  _273
REMARK  107  A    between atoms: _275  and  _277
REMARK  108  A    between atoms: _277  and  _278
REMARK  109  A    between atoms: _277  and  _280
REMARK  110  A    between atoms: _280  and  _281
REMARK  111  A    between atoms: _284  and  _286
REMARK  112  A    between atoms: _286  and  _287
REMARK  113  A    between atoms: _286  and  _289
REMARK  114  A    between atoms: _289  and  _290
REMARK  115  A    between atoms: _300  and  _302
REMARK  116  A    between atoms: _302  and  _303
REMARK  117  A    between atoms: _302  and  _305
REMARK  118  A    between atoms: _305  and  _306
REMARK  119  A    between atoms: _311  and  _313
REMARK  120  A    between atoms: _313  and  _314
REMARK  121  A    between atoms: _313  and  _316
REMARK  122  A    between atoms: _316  and  _317
REMARK  123  A    between atoms: _327  and  _329
REMARK  124  A    between atoms: _329  and  _330
REMARK  125  A    between atoms: _329  and  _332
REMARK  126  A    between atoms: _334  and  _336
REMARK  127  A    between atoms: _336  and  _337
REMARK  128  A    between atoms: _336  and  _339
REMARK  129  A    between atoms: _339  and  _340
REMARK  130  A    between atoms: _342  and  _344
REMARK  131  A    between atoms: _344  and  _345
REMARK  132  A    between atoms: _348  and  _350
REMARK  133  A    between atoms: _350  and  _351
REMARK  134  A    between atoms: _350  and  _353
REMARK  135  A    between atoms: _353  and  _354
REMARK  136  A    between atoms: _364  and  _366
REMARK  137  A    between atoms: _366  and  _367
REMARK  138  A    between atoms: _366  and  _369
REMARK  139  A    between atoms: _369  and  _370
REMARK  140  A    between atoms: _370  and  _371
REMARK                            x       y       z     vdW  Elec       q    Type
REMARK                         _______ _______ _______ _____ _____    ______ ____
ROOT
ATOM      1  O   HOH     1     -41.718  -2.953 194.423  0.00  0.00    +0.000 OA
ENDROOT
TORSDOF 0
REMARK  Name = ../refined-set-2016/3wmc/3wmc_pocket.pdb
REMARK  140 active torsions:
REMARK  status: ('A' for Active; 'I' for Inactive)
REMARK    1  A    between atoms: _1  and  _3
REMARK    2  A    between atoms: _3  and  _4
REMARK    3  A    between atoms: _3  and  _6
REMARK    4  A    between atoms: _6  and  _7
REMARK    5  A    between atoms: _10  and  _12
REMARK    6  A    between atoms: _12  and  _13
REMARK    7  A    between atoms: _12  and  _15
REMARK    8  A    between atoms: _15  and  _16
REMARK    9  A    between atoms: _16  and  _17
REMARK   10  A    between atoms: _17  and  _18
REMARK   11  A    between atoms: _27  and  _29
REMARK   12  A    between atoms: _29  and  _30
REMARK   13  A    between atoms: _29  and  _32
REMARK   14  A    between atoms: _32  and  _33
REMARK   15  A    between atoms: _38  and  _40
REMARK   16  A    between atoms: _40  and  _41
REMARK   17  A    between atoms: _40  and  _43
REMARK   18  A    between atoms: _43  and  _44
REMARK   19  A    between atoms: _47  and  _49
REMARK   20  A    between atoms: _49  and  _50
REMARK   21  A    between atoms: _49  and  _52
REMARK   22  A    between atoms: _52  and  _53
REMARK   23  A    between atoms: _53  and  _54
REMARK   24  A    between atoms: _57  and  _59
REMARK   25  A    between atoms: _59  and  _60
REMARK   26  A    between atoms: _59  and  _62
REMARK   27  A    between atoms: _62  and  _63
REMARK   28  A    between atoms: _66  and  _68
REMARK   29  A    between atoms: _68  and  _69
REMARK   30  A    between atoms: _68  and  _71
REMARK   31  A    between atoms: _71  and  _72
REMARK   32  A    between atoms: _77  and  _79
REMARK   33  A    between atoms: _79  and  _80
REMARK   34  A    between atoms: _79  and  _82
REMARK   35  A    between atoms: _82  and  _83
REMARK   36  A    between atoms: _93  and  _95
REMARK   37  A    between atoms: _95  and  _96
REMARK   38  A    between atoms: _95  and  _98
REMARK   39  A    between atoms: _101  and  _103
REMARK   40  A    between atoms: _103  and  _104
REMARK   41  A    between atoms: _103  and  _106
REMARK   42  A    between atoms: _106  and  _107
REMARK   43  A    between atoms: _107  and  _108
REMARK   44  A    between atoms: _111  and  _113
REMARK   45  A    between atoms: _113  and  _114
REMARK   46  A    between atoms: _113  and  _116
REMARK   47  A    between atoms: _116  and  _117
REMARK   48  A    between atoms: _122  and  _124
REMARK   49  A    between atoms: _124  and  _125
REMARK   50  A    between atoms: _127  and  _129
REMARK   51  A    between atoms: _129  and  _130
REMARK   52  A    between atoms: _132  and  _134
REMARK   53  A    between atoms: _134  and  _135
REMARK   54  A    between atoms: _134  and  _137
REMARK   55  A    between atoms: _137  and  _138
REMARK   56  A    between atoms: _141  and  _143
REMARK   57  A    between atoms: _143  and  _144
REMARK   58  A    between atoms: _143  and  _146
REMARK   59  A    between atoms: _146  and  _147
REMARK   60  A    between atoms: _147  and  _148
REMARK   61  A    between atoms: _151  and  _153
REMARK   62  A    between atoms: _153  and  _154
REMARK   63  A    between atoms: _153  and  _156
REMARK   64  A    between atoms: _156  and  _157
REMARK   65  A    between atoms: _160  and  _162
REMARK   66  A    between atoms: _162  and  _163
REMARK   67  A    between atoms: _162  and  _165
REMARK   68  A    between atoms: _165  and  _166
REMARK   69  A    between atoms: _176  and  _178
REMARK   70  A    between atoms: _178  and  _179
REMARK   71  A    between atoms: _178  and  _181
REMARK   72  A    between atoms: _181  and  _182
REMARK   73  A    between atoms: _185  and  _187
REMARK   74  A    between atoms: _187  and  _188
REMARK   75  A    between atoms: _187  and  _190
REMARK   76  A    between atoms: _190  and  _191
REMARK   77  A    between atoms: _191  and  _192
REMARK   78  A    between atoms: _197  and  _199
REMARK   79  A    between atoms: _199  and  _200
REMARK   80  A    between atoms: _199  and  _202
REMARK   81  A    between atoms: _205  and  _207
REMARK   82  A    between atoms: _207  and  _208
REMARK   83  A    between atoms: _207  and  _210
REMARK   84  A    between atoms: _210  and  _211
REMARK   85  A    between atoms: _221  and  _223
REMARK   86  A    between atoms: _223  and  _224
REMARK   87  A    between atoms: _223  and  _226
REMARK   88  A    between atoms: _226  and  _227
REMARK   89  A    between atoms: _230  and  _232
REMARK   90  A    between atoms: _232  and  _233
REMARK   91  A    between atoms: _232  and  _235
REMARK   92  A    between atoms: _235  and  _236
REMARK   93  A    between atoms: _239  and  _241
REMARK   94  A    between atoms: _241  and  _242
REMARK   95  A    between atoms: _241  and  _244
REMARK   96  A    between atoms: _244  and  _245
REMARK   97  A    between atoms: _247  and  _249
REMARK   98  A    between atoms: _249  and  _250
REMARK   99  A    between atoms: _249  and  _252
REMARK  100  A    between atoms: _252  and  _253
REMARK  101  A    between atoms: _258  and  _259
REMARK  102  A    between atoms: _261  and  _263
REMARK  103  A    between atoms: _263  and  _264
REMARK  104  A    between atoms: _263  and  _266
REMARK  105  A    between atoms: _266  and  _267
REMARK  106  A    between atoms: _272  and  _273
REMARK  107  A    between atoms: _275  and  _277
REMARK  108  A    between atoms: _277  and  _278
REMARK  109  A    between atoms: _277  and  _280
REMARK  110  A    between atoms: _280  and  _281
REMARK  111  A    between atoms: _284  and  _286
REMARK  112  A    between atoms: _286  and  _287
REMARK  113  A    between atoms: _286  and  _289
REMARK  114  A    between atoms: _289  and  _290
REMARK  115  A    between atoms: _300  and  _302
REMARK  116  A    between atoms: _302  and  _303
REMARK  117  A    between atoms: _302  and  _305
REMARK  118  A    between atoms: _305  and  _306
REMARK  119  A    between atoms: _311  and  _313
REMARK  120  A    between atoms: _313  and  _314
REMARK  121  A    between atoms: _313  and  _316
REMARK  122  A    between atoms: _316  and  _317
REMARK  123  A    between atoms: _327  and  _329
REMARK  124  A    between atoms: _329  and  _330
REMARK  125  A    between atoms: _329  and  _332
REMARK  126  A    between atoms: _334  and  _336
REMARK  127  A    between atoms: _336  and  _337
REMARK  128  A    between atoms: _336  and  _339
REMARK  129  A    between atoms: _339  and  _340
REMARK  130  A    between atoms: _342  and  _344
REMARK  131  A    between atoms: _344  and  _345
REMARK  132  A    between atoms: _348  and  _350
REMARK  133  A    between atoms: _350  and  _351
REMARK  134  A    between atoms: _350  and  _353
REMARK  135  A    between atoms: _353  and  _354
REMARK  136  A    between atoms: _364  and  _366
REMARK  137  A    between atoms: _366  and  _367
REMARK  138  A    between atoms: _366  and  _369
REMARK  139  A    between atoms: _369  and  _370
REMARK  140  A    between atoms: _370  and  _371
REMARK                            x       y       z     vdW  Elec       q    Type
REMARK                         _______ _______ _______ _____ _____    ______ ____
ROOT
ATOM      1  O   HOH     1     -42.434   0.949 186.261  0.00  0.00    +0.000 OA
ENDROOT
TORSDOF 0
REMARK  Name = ../refined-set-2016/3wmc/3wmc_pocket.pdb
REMARK  140 active torsions:
REMARK  status: ('A' for Active; 'I' for Inactive)
REMARK    1  A    between atoms: _1  and  _3
REMARK    2  A    between atoms: _3  and  _4
REMARK    3  A    between atoms: _3  and  _6
REMARK    4  A    between atoms: _6  and  _7
REMARK    5  A    between atoms: _10  and  _12
REMARK    6  A    between atoms: _12  and  _13
REMARK    7  A    between atoms: _12  and  _15
REMARK    8  A    between atoms: _15  and  _16
REMARK    9  A    between atoms: _16  and  _17
REMARK   10  A    between atoms: _17  and  _18
REMARK   11  A    between atoms: _27  and  _29
REMARK   12  A    between atoms: _29  and  _30
REMARK   13  A    between atoms: _29  and  _32
REMARK   14  A    between atoms: _32  and  _33
REMARK   15  A    between atoms: _38  and  _40
REMARK   16  A    between atoms: _40  and  _41
REMARK   17  A    between atoms: _40  and  _43
REMARK   18  A    between atoms: _43  and  _44
REMARK   19  A    between atoms: _47  and  _49
REMARK   20  A    between atoms: _49  and  _50
REMARK   21  A    between atoms: _49  and  _52
REMARK   22  A    between atoms: _52  and  _53
REMARK   23  A    between atoms: _53  and  _54
REMARK   24  A    between atoms: _57  and  _59
REMARK   25  A    between atoms: _59  and  _60
REMARK   26  A    between atoms: _59  and  _62
REMARK   27  A    between atoms: _62  and  _63
REMARK   28  A    between atoms: _66  and  _68
REMARK   29  A    between atoms: _68  and  _69
REMARK   30  A    between atoms: _68  and  _71
REMARK   31  A    between atoms: _71  and  _72
REMARK   32  A    between atoms: _77  and  _79
REMARK   33  A    between atoms: _79  and  _80
REMARK   34  A    between atoms: _79  and  _82
REMARK   35  A    between atoms: _82  and  _83
REMARK   36  A    between atoms: _93  and  _95
REMARK   37  A    between atoms: _95  and  _96
REMARK   38  A    between atoms: _95  and  _98
REMARK   39  A    between atoms: _101  and  _103
REMARK   40  A    between atoms: _103  and  _104
REMARK   41  A    between atoms: _103  and  _106
REMARK   42  A    between atoms: _106  and  _107
REMARK   43  A    between atoms: _107  and  _108
REMARK   44  A    between atoms: _111  and  _113
REMARK   45  A    between atoms: _113  and  _114
REMARK   46  A    between atoms: _113  and  _116
REMARK   47  A    between atoms: _116  and  _117
REMARK   48  A    between atoms: _122  and  _124
REMARK   49  A    between atoms: _124  and  _125
REMARK   50  A    between atoms: _127  and  _129
REMARK   51  A    between atoms: _129  and  _130
REMARK   52  A    between atoms: _132  and  _134
REMARK   53  A    between atoms: _134  and  _135
REMARK   54  A    between atoms: _134  and  _137
REMARK   55  A    between atoms: _137  and  _138
REMARK   56  A    between atoms: _141  and  _143
REMARK   57  A    between atoms: _143  and  _144
REMARK   58  A    between atoms: _143  and  _146
REMARK   59  A    between atoms: _146  and  _147
REMARK   60  A    between atoms: _147  and  _148
REMARK   61  A    between atoms: _151  and  _153
REMARK   62  A    between atoms: _153  and  _154
REMARK   63  A    between atoms: _153  and  _156
REMARK   64  A    between atoms: _156  and  _157
REMARK   65  A    between atoms: _160  and  _162
REMARK   66  A    between atoms: _162  and  _163
REMARK   67  A    between atoms: _162  and  _165
REMARK   68  A    between atoms: _165  and  _166
REMARK   69  A    between atoms: _176  and  _178
REMARK   70  A    between atoms: _178  and  _179
REMARK   71  A    between atoms: _178  and  _181
REMARK   72  A    between atoms: _181  and  _182
REMARK   73  A    between atoms: _185  and  _187
REMARK   74  A    between atoms: _187  and  _188
REMARK   75  A    between atoms: _187  and  _190
REMARK   76  A    between atoms: _190  and  _191
REMARK   77  A    between atoms: _191  and  _192
REMARK   78  A    between atoms: _197  and  _199
REMARK   79  A    between atoms: _199  and  _200
REMARK   80  A    between atoms: _199  and  _202
REMARK   81  A    between atoms: _205  and  _207
REMARK   82  A    between atoms: _207  and  _208
REMARK   83  A    between atoms: _207  and  _210
REMARK   84  A    between atoms: _210  and  _211
REMARK   85  A    between atoms: _221  and  _223
REMARK   86  A    between atoms: _223  and  _224
REMARK   87  A    between atoms: _223  and  _226
REMARK   88  A    between atoms: _226  and  _227
REMARK   89  A    between atoms: _230  and  _232
REMARK   90  A    between atoms: _232  and  _233
REMARK   91  A    between atoms: _232  and  _235
REMARK   92  A    between atoms: _235  and  _236
REMARK   93  A    between atoms: _239  and  _241
REMARK   94  A    between atoms: _241  and  _242
REMARK   95  A    between atoms: _241  and  _244
REMARK   96  A    between atoms: _244  and  _245
REMARK   97  A    between atoms: _247  and  _249
REMARK   98  A    between atoms: _249  and  _250
REMARK   99  A    between atoms: _249  and  _252
REMARK  100  A    between atoms: _252  and  _253
REMARK  101  A    between atoms: _258  and  _259
REMARK  102  A    between atoms: _261  and  _263
REMARK  103  A    between atoms: _263  and  _264
REMARK  104  A    between atoms: _263  and  _266
REMARK  105  A    between atoms: _266  and  _267
REMARK  106  A    between atoms: _272  and  _273
REMARK  107  A    between atoms: _275  and  _277
REMARK  108  A    between atoms: _277  and  _278
REMARK  109  A    between atoms: _277  and  _280
REMARK  110  A    between atoms: _280  and  _281
REMARK  111  A    between atoms: _284  and  _286
REMARK  112  A    between atoms: _286  and  _287
REMARK  113  A    between atoms: _286  and  _289
REMARK  114  A    between atoms: _289  and  _290
REMARK  115  A    between atoms: _300  and  _302
REMARK  116  A    between atoms: _302  and  _303
REMARK  117  A    between atoms: _302  and  _305
REMARK  118  A    between atoms: _305  and  _306
REMARK  119  A    between atoms: _311  and  _313
REMARK  120  A    between atoms: _313  and  _314
REMARK  121  A    between atoms: _313  and  _316
REMARK  122  A    between atoms: _316  and  _317
REMARK  123  A    between atoms: _327  and  _329
REMARK  124  A    between atoms: _329  and  _330
REMARK  125  A    between atoms: _329  and  _332
REMARK  126  A    between atoms: _334  and  _336
REMARK  127  A    between atoms: _336  and  _337
REMARK  128  A    between atoms: _336  and  _339
REMARK  129  A    between atoms: _339  and  _340
REMARK  130  A    between atoms: _342  and  _344
REMARK  131  A    between atoms: _344  and  _345
REMARK  132  A    between atoms: _348  and  _350
REMARK  133  A    between atoms: _350  and  _351
REMARK  134  A    between atoms: _350  and  _353
REMARK  135  A    between atoms: _353  and  _354
REMARK  136  A    between atoms: _364  and  _366
REMARK  137  A    between atoms: _366  and  _367
REMARK  138  A    between atoms: _366  and  _369
REMARK  139  A    between atoms: _369  and  _370
REMARK  140  A    between atoms: _370  and  _371
REMARK                            x       y       z     vdW  Elec       q    Type
REMARK                         _______ _______ _______ _____ _____    ______ ____
ROOT
ATOM      1  O   HOH     1     -40.332  -3.192 191.712  0.00  0.00    +0.000 OA
ENDROOT
TORSDOF 0
REMARK  Name = ../refined-set-2016/3wmc/3wmc_pocket.pdb
REMARK  140 active torsions:
REMARK  status: ('A' for Active; 'I' for Inactive)
REMARK    1  A    between atoms: _1  and  _3
REMARK    2  A    between atoms: _3  and  _4
REMARK    3  A    between atoms: _3  and  _6
REMARK    4  A    between atoms: _6  and  _7
REMARK    5  A    between atoms: _10  and  _12
REMARK    6  A    between atoms: _12  and  _13
REMARK    7  A    between atoms: _12  and  _15
REMARK    8  A    between atoms: _15  and  _16
REMARK    9  A    between atoms: _16  and  _17
REMARK   10  A    between atoms: _17  and  _18
REMARK   11  A    between atoms: _27  and  _29
REMARK   12  A    between atoms: _29  and  _30
REMARK   13  A    between atoms: _29  and  _32
REMARK   14  A    between atoms: _32  and  _33
REMARK   15  A    between atoms: _38  and  _40
REMARK   16  A    between atoms: _40  and  _41
REMARK   17  A    between atoms: _40  and  _43
REMARK   18  A    between atoms: _43  and  _44
REMARK   19  A    between atoms: _47  and  _49
REMARK   20  A    between atoms: _49  and  _50
REMARK   21  A    between atoms: _49  and  _52
REMARK   22  A    between atoms: _52  and  _53
REMARK   23  A    between atoms: _53  and  _54
REMARK   24  A    between atoms: _57  and  _59
REMARK   25  A    between atoms: _59  and  _60
REMARK   26  A    between atoms: _59  and  _62
REMARK   27  A    between atoms: _62  and  _63
REMARK   28  A    between atoms: _66  and  _68
REMARK   29  A    between atoms: _68  and  _69
REMARK   30  A    between atoms: _68  and  _71
REMARK   31  A    between atoms: _71  and  _72
REMARK   32  A    between atoms: _77  and  _79
REMARK   33  A    between atoms: _79  and  _80
REMARK   34  A    between atoms: _79  and  _82
REMARK   35  A    between atoms: _82  and  _83
REMARK   36  A    between atoms: _93  and  _95
REMARK   37  A    between atoms: _95  and  _96
REMARK   38  A    between atoms: _95  and  _98
REMARK   39  A    between atoms: _101  and  _103
REMARK   40  A    between atoms: _103  and  _104
REMARK   41  A    between atoms: _103  and  _106
REMARK   42  A    between atoms: _106  and  _107
REMARK   43  A    between atoms: _107  and  _108
REMARK   44  A    between atoms: _111  and  _113
REMARK   45  A    between atoms: _113  and  _114
REMARK   46  A    between atoms: _113  and  _116
REMARK   47  A    between atoms: _116  and  _117
REMARK   48  A    between atoms: _122  and  _124
REMARK   49  A    between atoms: _124  and  _125
REMARK   50  A    between atoms: _127  and  _129
REMARK   51  A    between atoms: _129  and  _130
REMARK   52  A    between atoms: _132  and  _134
REMARK   53  A    between atoms: _134  and  _135
REMARK   54  A    between atoms: _134  and  _137
REMARK   55  A    between atoms: _137  and  _138
REMARK   56  A    between atoms: _141  and  _143
REMARK   57  A    between atoms: _143  and  _144
REMARK   58  A    between atoms: _143  and  _146
REMARK   59  A    between atoms: _146  and  _147
REMARK   60  A    between atoms: _147  and  _148
REMARK   61  A    between atoms: _151  and  _153
REMARK   62  A    between atoms: _153  and  _154
REMARK   63  A    between atoms: _153  and  _156
REMARK   64  A    between atoms: _156  and  _157
REMARK   65  A    between atoms: _160  and  _162
REMARK   66  A    between atoms: _162  and  _163
REMARK   67  A    between atoms: _162  and  _165
REMARK   68  A    between atoms: _165  and  _166
REMARK   69  A    between atoms: _176  and  _178
REMARK   70  A    between atoms: _178  and  _179
REMARK   71  A    between atoms: _178  and  _181
REMARK   72  A    between atoms: _181  and  _182
REMARK   73  A    between atoms: _185  and  _187
REMARK   74  A    between atoms: _187  and  _188
REMARK   75  A    between atoms: _187  and  _190
REMARK   76  A    between atoms: _190  and  _191
REMARK   77  A    between atoms: _191  and  _192
REMARK   78  A    between atoms: _197  and  _199
REMARK   79  A    between atoms: _199  and  _200
REMARK   80  A    between atoms: _199  and  _202
REMARK   81  A    between atoms: _205  and  _207
REMARK   82  A    between atoms: _207  and  _208
REMARK   83  A    between atoms: _207  and  _210
REMARK   84  A    between atoms: _210  and  _211
REMARK   85  A    between atoms: _221  and  _223
REMARK   86  A    between atoms: _223  and  _224
REMARK   87  A    between atoms: _223  and  _226
REMARK   88  A    between atoms: _226  and  _227
REMARK   89  A    between atoms: _230  and  _232
REMARK   90  A    between atoms: _232  and  _233
REMARK   91  A    between atoms: _232  and  _235
REMARK   92  A    between atoms: _235  and  _236
REMARK   93  A    between atoms: _239  and  _241
REMARK   94  A    between atoms: _241  and  _242
REMARK   95  A    between atoms: _241  and  _244
REMARK   96  A    between atoms: _244  and  _245
REMARK   97  A    between atoms: _247  and  _249
REMARK   98  A    between atoms: _249  and  _250
REMARK   99  A    between atoms: _249  and  _252
REMARK  100  A    between atoms: _252  and  _253
REMARK  101  A    between atoms: _258  and  _259
REMARK  102  A    between atoms: _261  and  _263
REMARK  103  A    between atoms: _263  and  _264
REMARK  104  A    between atoms: _263  and  _266
REMARK  105  A    between atoms: _266  and  _267
REMARK  106  A    between atoms: _272  and  _273
REMARK  107  A    between atoms: _275  and  _277
REMARK  108  A    between atoms: _277  and  _278
REMARK  109  A    between atoms: _277  and  _280
REMARK  110  A    between atoms: _280  and  _281
REMARK  111  A    between atoms: _284  and  _286
REMARK  112  A    between atoms: _286  and  _287
REMARK  113  A    between atoms: _286  and  _289
REMARK  114  A    between atoms: _289  and  _290
REMARK  115  A    between atoms: _300  and  _302
REMARK  116  A    between atoms: _302  and  _303
REMARK  117  A    between atoms: _302  and  _305
REMARK  118  A    between atoms: _305  and  _306
REMARK  119  A    between atoms: _311  and  _313
REMARK  120  A    between atoms: _313  and  _314
REMARK  121  A    between atoms: _313  and  _316
REMARK  122  A    between atoms: _316  and  _317
REMARK  123  A    between atoms: _327  and  _329
REMARK  124  A    between atoms: _329  and  _330
REMARK  125  A    between atoms: _329  and  _332
REMARK  126  A    between atoms: _334  and  _336
REMARK  127  A    between atoms: _336  and  _337
REMARK  128  A    between atoms: _336  and  _339
REMARK  129  A    between atoms: _339  and  _340
REMARK  130  A    between atoms: _342  and  _344
REMARK  131  A    between atoms: _344  and  _345
REMARK  132  A    between atoms: _348  and  _350
REMARK  133  A    between atoms: _350  and  _351
REMARK  134  A    between atoms: _350  and  _353
REMARK  135  A    between atoms: _353  and  _354
REMARK  136  A    between atoms: _364  and  _366
REMARK  137  A    between atoms: _366  and  _367
REMARK  138  A    between atoms: _366  and  _369
REMARK  139  A    between atoms: _369  and  _370
REMARK  140  A    between atoms: _370  and  _371
REMARK                            x       y       z     vdW  Elec       q    Type
REMARK                         _______ _______ _______ _____ _____    ______ ____
ROOT
ATOM      1  O   HOH     1     -43.652   1.317 183.852  0.00  0.00    +0.000 OA
ENDROOT
TORSDOF 0
REMARK  Name = ../refined-set-2016/3wmc/3wmc_pocket.pdb
REMARK  140 active torsions:
REMARK  status: ('A' for Active; 'I' for Inactive)
REMARK    1  A    between atoms: _1  and  _3
REMARK    2  A    between atoms: _3  and  _4
REMARK    3  A    between atoms: _3  and  _6
REMARK    4  A    between atoms: _6  and  _7
REMARK    5  A    between atoms: _10  and  _12
REMARK    6  A    between atoms: _12  and  _13
REMARK    7  A    between atoms: _12  and  _15
REMARK    8  A    between atoms: _15  and  _16
REMARK    9  A    between atoms: _16  and  _17
REMARK   10  A    between atoms: _17  and  _18
REMARK   11  A    between atoms: _27  and  _29
REMARK   12  A    between atoms: _29  and  _30
REMARK   13  A    between atoms: _29  and  _32
REMARK   14  A    between atoms: _32  and  _33
REMARK   15  A    between atoms: _38  and  _40
REMARK   16  A    between atoms: _40  and  _41
REMARK   17  A    between atoms: _40  and  _43
REMARK   18  A    between atoms: _43  and  _44
REMARK   19  A    between atoms: _47  and  _49
REMARK   20  A    between atoms: _49  and  _50
REMARK   21  A    between atoms: _49  and  _52
REMARK   22  A    between atoms: _52  and  _53
REMARK   23  A    between atoms: _53  and  _54
REMARK   24  A    between atoms: _57  and  _59
REMARK   25  A    between atoms: _59  and  _60
REMARK   26  A    between atoms: _59  and  _62
REMARK   27  A    between atoms: _62  and  _63
REMARK   28  A    between atoms: _66  and  _68
REMARK   29  A    between atoms: _68  and  _69
REMARK   30  A    between atoms: _68  and  _71
REMARK   31  A    between atoms: _71  and  _72
REMARK   32  A    between atoms: _77  and  _79
REMARK   33  A    between atoms: _79  and  _80
REMARK   34  A    between atoms: _79  and  _82
REMARK   35  A    between atoms: _82  and  _83
REMARK   36  A    between atoms: _93  and  _95
REMARK   37  A    between atoms: _95  and  _96
REMARK   38  A    between atoms: _95  and  _98
REMARK   39  A    between atoms: _101  and  _103
REMARK   40  A    between atoms: _103  and  _104
REMARK   41  A    between atoms: _103  and  _106
REMARK   42  A    between atoms: _106  and  _107
REMARK   43  A    between atoms: _107  and  _108
REMARK   44  A    between atoms: _111  and  _113
REMARK   45  A    between atoms: _113  and  _114
REMARK   46  A    between atoms: _113  and  _116
REMARK   47  A    between atoms: _116  and  _117
REMARK   48  A    between atoms: _122  and  _124
REMARK   49  A    between atoms: _124  and  _125
REMARK   50  A    between atoms: _127  and  _129
REMARK   51  A    between atoms: _129  and  _130
REMARK   52  A    between atoms: _132  and  _134
REMARK   53  A    between atoms: _134  and  _135
REMARK   54  A    between atoms: _134  and  _137
REMARK   55  A    between atoms: _137  and  _138
REMARK   56  A    between atoms: _141  and  _143
REMARK   57  A    between atoms: _143  and  _144
REMARK   58  A    between atoms: _143  and  _146
REMARK   59  A    between atoms: _146  and  _147
REMARK   60  A    between atoms: _147  and  _148
REMARK   61  A    between atoms: _151  and  _153
REMARK   62  A    between atoms: _153  and  _154
REMARK   63  A    between atoms: _153  and  _156
REMARK   64  A    between atoms: _156  and  _157
REMARK   65  A    between atoms: _160  and  _162
REMARK   66  A    between atoms: _162  and  _163
REMARK   67  A    between atoms: _162  and  _165
REMARK   68  A    between atoms: _165  and  _166
REMARK   69  A    between atoms: _176  and  _178
REMARK   70  A    between atoms: _178  and  _179
REMARK   71  A    between atoms: _178  and  _181
REMARK   72  A    between atoms: _181  and  _182
REMARK   73  A    between atoms: _185  and  _187
REMARK   74  A    between atoms: _187  and  _188
REMARK   75  A    between atoms: _187  and  _190
REMARK   76  A    between atoms: _190  and  _191
REMARK   77  A    between atoms: _191  and  _192
REMARK   78  A    between atoms: _197  and  _199
REMARK   79  A    between atoms: _199  and  _200
REMARK   80  A    between atoms: _199  and  _202
REMARK   81  A    between atoms: _205  and  _207
REMARK   82  A    between atoms: _207  and  _208
REMARK   83  A    between atoms: _207  and  _210
REMARK   84  A    between atoms: _210  and  _211
REMARK   85  A    between atoms: _221  and  _223
REMARK   86  A    between atoms: _223  and  _224
REMARK   87  A    between atoms: _223  and  _226
REMARK   88  A    between atoms: _226  and  _227
REMARK   89  A    between atoms: _230  and  _232
REMARK   90  A    between atoms: _232  and  _233
REMARK   91  A    between atoms: _232  and  _235
REMARK   92  A    between atoms: _235  and  _236
REMARK   93  A    between atoms: _239  and  _241
REMARK   94  A    between atoms: _241  and  _242
REMARK   95  A    between atoms: _241  and  _244
REMARK   96  A    between atoms: _244  and  _245
REMARK   97  A    between atoms: _247  and  _249
REMARK   98  A    between atoms: _249  and  _250
REMARK   99  A    between atoms: _249  and  _252
REMARK  100  A    between atoms: _252  and  _253
REMARK  101  A    between atoms: _258  and  _259
REMARK  102  A    between atoms: _261  and  _263
REMARK  103  A    between atoms: _263  and  _264
REMARK  104  A    between atoms: _263  and  _266
REMARK  105  A    between atoms: _266  and  _267
REMARK  106  A    between atoms: _272  and  _273
REMARK  107  A    between atoms: _275  and  _277
REMARK  108  A    between atoms: _277  and  _278
REMARK  109  A    between atoms: _277  and  _280
REMARK  110  A    between atoms: _280  and  _281
REMARK  111  A    between atoms: _284  and  _286
REMARK  112  A    between atoms: _286  and  _287
REMARK  113  A    between atoms: _286  and  _289
REMARK  114  A    between atoms: _289  and  _290
REMARK  115  A    between atoms: _300  and  _302
REMARK  116  A    between atoms: _302  and  _303
REMARK  117  A    between atoms: _302  and  _305
REMARK  118  A    between atoms: _305  and  _306
REMARK  119  A    between atoms: _311  and  _313
REMARK  120  A    between atoms: _313  and  _314
REMARK  121  A    between atoms: _313  and  _316
REMARK  122  A    between atoms: _316  and  _317
REMARK  123  A    between atoms: _327  and  _329
REMARK  124  A    between atoms: _329  and  _330
REMARK  125  A    between atoms: _329  and  _332
REMARK  126  A    between atoms: _334  and  _336
REMARK  127  A    between atoms: _336  and  _337
REMARK  128  A    between atoms: _336  and  _339
REMARK  129  A    between atoms: _339  and  _340
REMARK  130  A    between atoms: _342  and  _344
REMARK  131  A    between atoms: _344  and  _345
REMARK  132  A    between atoms: _348  and  _350
REMARK  133  A    between atoms: _350  and  _351
REMARK  134  A    between atoms: _350  and  _353
REMARK  135  A    between atoms: _353  and  _354
REMARK  136  A    between atoms: _364  and  _366
REMARK  137  A    between atoms: _366  and  _367
REMARK  138  A    between atoms: _366  and  _369
REMARK  139  A    between atoms: _369  and  _370
REMARK  140  A    between atoms: _370  and  _371
REMARK                            x       y       z     vdW  Elec       q    Type
REMARK                         _______ _______ _______ _____ _____    ______ ____
ROOT
ATOM      1  O   HOH     1     -35.494  -7.139 195.189  0.00  0.00    +0.000 OA
ENDROOT
TORSDOF 0
REMARK  Name = ../refined-set-2016/3wmc/3wmc_pocket.pdb
REMARK  140 active torsions:
REMARK  status: ('A' for Active; 'I' for Inactive)
REMARK    1  A    between atoms: _1  and  _3
REMARK    2  A    between atoms: _3  and  _4
REMARK    3  A    between atoms: _3  and  _6
REMARK    4  A    between atoms: _6  and  _7
REMARK    5  A    between atoms: _10  and  _12
REMARK    6  A    between atoms: _12  and  _13
REMARK    7  A    between atoms: _12  and  _15
REMARK    8  A    between atoms: _15  and  _16
REMARK    9  A    between atoms: _16  and  _17
REMARK   10  A    between atoms: _17  and  _18
REMARK   11  A    between atoms: _27  and  _29
REMARK   12  A    between atoms: _29  and  _30
REMARK   13  A    between atoms: _29  and  _32
REMARK   14  A    between atoms: _32  and  _33
REMARK   15  A    between atoms: _38  and  _40
REMARK   16  A    between atoms: _40  and  _41
REMARK   17  A    between atoms: _40  and  _43
REMARK   18  A    between atoms: _43  and  _44
REMARK   19  A    between atoms: _47  and  _49
REMARK   20  A    between atoms: _49  and  _50
REMARK   21  A    between atoms: _49  and  _52
REMARK   22  A    between atoms: _52  and  _53
REMARK   23  A    between atoms: _53  and  _54
REMARK   24  A    between atoms: _57  and  _59
REMARK   25  A    between atoms: _59  and  _60
REMARK   26  A    between atoms: _59  and  _62
REMARK   27  A    between atoms: _62  and  _63
REMARK   28  A    between atoms: _66  and  _68
REMARK   29  A    between atoms: _68  and  _69
REMARK   30  A    between atoms: _68  and  _71
REMARK   31  A    between atoms: _71  and  _72
REMARK   32  A    between atoms: _77  and  _79
REMARK   33  A    between atoms: _79  and  _80
REMARK   34  A    between atoms: _79  and  _82
REMARK   35  A    between atoms: _82  and  _83
REMARK   36  A    between atoms: _93  and  _95
REMARK   37  A    between atoms: _95  and  _96
REMARK   38  A    between atoms: _95  and  _98
REMARK   39  A    between atoms: _101  and  _103
REMARK   40  A    between atoms: _103  and  _104
REMARK   41  A    between atoms: _103  and  _106
REMARK   42  A    between atoms: _106  and  _107
REMARK   43  A    between atoms: _107  and  _108
REMARK   44  A    between atoms: _111  and  _113
REMARK   45  A    between atoms: _113  and  _114
REMARK   46  A    between atoms: _113  and  _116
REMARK   47  A    between atoms: _116  and  _117
REMARK   48  A    between atoms: _122  and  _124
REMARK   49  A    between atoms: _124  and  _125
REMARK   50  A    between atoms: _127  and  _129
REMARK   51  A    between atoms: _129  and  _130
REMARK   52  A    between atoms: _132  and  _134
REMARK   53  A    between atoms: _134  and  _135
REMARK   54  A    between atoms: _134  and  _137
REMARK   55  A    between atoms: _137  and  _138
REMARK   56  A    between atoms: _141  and  _143
REMARK   57  A    between atoms: _143  and  _144
REMARK   58  A    between atoms: _143  and  _146
REMARK   59  A    between atoms: _146  and  _147
REMARK   60  A    between atoms: _147  and  _148
REMARK   61  A    between atoms: _151  and  _153
REMARK   62  A    between atoms: _153  and  _154
REMARK   63  A    between atoms: _153  and  _156
REMARK   64  A    between atoms: _156  and  _157
REMARK   65  A    between atoms: _160  and  _162
REMARK   66  A    between atoms: _162  and  _163
REMARK   67  A    between atoms: _162  and  _165
REMARK   68  A    between atoms: _165  and  _166
REMARK   69  A    between atoms: _176  and  _178
REMARK   70  A    between atoms: _178  and  _179
REMARK   71  A    between atoms: _178  and  _181
REMARK   72  A    between atoms: _181  and  _182
REMARK   73  A    between atoms: _185  and  _187
REMARK   74  A    between atoms: _187  and  _188
REMARK   75  A    between atoms: _187  and  _190
REMARK   76  A    between atoms: _190  and  _191
REMARK   77  A    between atoms: _191  and  _192
REMARK   78  A    between atoms: _197  and  _199
REMARK   79  A    between atoms: _199  and  _200
REMARK   80  A    between atoms: _199  and  _202
REMARK   81  A    between atoms: _205  and  _207
REMARK   82  A    between atoms: _207  and  _208
REMARK   83  A    between atoms: _207  and  _210
REMARK   84  A    between atoms: _210  and  _211
REMARK   85  A    between atoms: _221  and  _223
REMARK   86  A    between atoms: _223  and  _224
REMARK   87  A    between atoms: _223  and  _226
REMARK   88  A    between atoms: _226  and  _227
REMARK   89  A    between atoms: _230  and  _232
REMARK   90  A    between atoms: _232  and  _233
REMARK   91  A    between atoms: _232  and  _235
REMARK   92  A    between atoms: _235  and  _236
REMARK   93  A    between atoms: _239  and  _241
REMARK   94  A    between atoms: _241  and  _242
REMARK   95  A    between atoms: _241  and  _244
REMARK   96  A    between atoms: _244  and  _245
REMARK   97  A    between atoms: _247  and  _249
REMARK   98  A    between atoms: _249  and  _250
REMARK   99  A    between atoms: _249  and  _252
REMARK  100  A    between atoms: _252  and  _253
REMARK  101  A    between atoms: _258  and  _259
REMARK  102  A    between atoms: _261  and  _263
REMARK  103  A    between atoms: _263  and  _264
REMARK  104  A    between atoms: _263  and  _266
REMARK  105  A    between atoms: _266  and  _267
REMARK  106  A    between atoms: _272  and  _273
REMARK  107  A    between atoms: _275  and  _277
REMARK  108  A    between atoms: _277  and  _278
REMARK  109  A    between atoms: _277  and  _280
REMARK  110  A    between atoms: _280  and  _281
REMARK  111  A    between atoms: _284  and  _286
REMARK  112  A    between atoms: _286  and  _287
REMARK  113  A    between atoms: _286  and  _289
REMARK  114  A    between atoms: _289  and  _290
REMARK  115  A    between atoms: _300  and  _302
REMARK  116  A    between atoms: _302  and  _303
REMARK  117  A    between atoms: _302  and  _305
REMARK  118  A    between atoms: _305  and  _306
REMARK  119  A    between atoms: _311  and  _313
REMARK  120  A    between atoms: _313  and  _314
REMARK  121  A    between atoms: _313  and  _316
REMARK  122  A    between atoms: _316  and  _317
REMARK  123  A    between atoms: _327  and  _329
REMARK  124  A    between atoms: _329  and  _330
REMARK  125  A    between atoms: _329  and  _332
REMARK  126  A    between atoms: _334  and  _336
REMARK  127  A    between atoms: _336  and  _337
REMARK  128  A    between atoms: _336  and  _339
REMARK  129  A    between atoms: _339  and  _340
REMARK  130  A    between atoms: _342  and  _344
REMARK  131  A    between atoms: _344  and  _345
REMARK  132  A    between atoms: _348  and  _350
REMARK  133  A    between atoms: _350  and  _351
REMARK  134  A    between atoms: _350  and  _353
REMARK  135  A    between atoms: _353  and  _354
REMARK  136  A    between atoms: _364  and  _366
REMARK  137  A    between atoms: _366  and  _367
REMARK  138  A    between atoms: _366  and  _369
REMARK  139  A    between atoms: _369  and  _370
REMARK  140  A    between atoms: _370  and  _371
REMARK                            x       y       z     vdW  Elec       q    Type
REMARK                         _______ _______ _______ _____ _____    ______ ____
ROOT
ATOM      1  O   HOH     1     -33.557  -5.924 187.344  0.00  0.00    +0.000 OA
ENDROOT
TORSDOF 0
REMARK  Name = ../refined-set-2016/3wmc/3wmc_pocket.pdb
REMARK  140 active torsions:
REMARK  status: ('A' for Active; 'I' for Inactive)
REMARK    1  A    between atoms: _1  and  _3
REMARK    2  A    between atoms: _3  and  _4
REMARK    3  A    between atoms: _3  and  _6
REMARK    4  A    between atoms: _6  and  _7
REMARK    5  A    between atoms: _10  and  _12
REMARK    6  A    between atoms: _12  and  _13
REMARK    7  A    between atoms: _12  and  _15
REMARK    8  A    between atoms: _15  and  _16
REMARK    9  A    between atoms: _16  and  _17
REMARK   10  A    between atoms: _17  and  _18
REMARK   11  A    between atoms: _27  and  _29
REMARK   12  A    between atoms: _29  and  _30
REMARK   13  A    between atoms: _29  and  _32
REMARK   14  A    between atoms: _32  and  _33
REMARK   15  A    between atoms: _38  and  _40
REMARK   16  A    between atoms: _40  and  _41
REMARK   17  A    between atoms: _40  and  _43
REMARK   18  A    between atoms: _43  and  _44
REMARK   19  A    between atoms: _47  and  _49
REMARK   20  A    between atoms: _49  and  _50
REMARK   21  A    between atoms: _49  and  _52
REMARK   22  A    between atoms: _52  and  _53
REMARK   23  A    between atoms: _53  and  _54
REMARK   24  A    between atoms: _57  and  _59
REMARK   25  A    between atoms: _59  and  _60
REMARK   26  A    between atoms: _59  and  _62
REMARK   27  A    between atoms: _62  and  _63
REMARK   28  A    between atoms: _66  and  _68
REMARK   29  A    between atoms: _68  and  _69
REMARK   30  A    between atoms: _68  and  _71
REMARK   31  A    between atoms: _71  and  _72
REMARK   32  A    between atoms: _77  and  _79
REMARK   33  A    between atoms: _79  and  _80
REMARK   34  A    between atoms: _79  and  _82
REMARK   35  A    between atoms: _82  and  _83
REMARK   36  A    between atoms: _93  and  _95
REMARK   37  A    between atoms: _95  and  _96
REMARK   38  A    between atoms: _95  and  _98
REMARK   39  A    between atoms: _101  and  _103
REMARK   40  A    between atoms: _103  and  _104
REMARK   41  A    between atoms: _103  and  _106
REMARK   42  A    between atoms: _106  and  _107
REMARK   43  A    between atoms: _107  and  _108
REMARK   44  A    between atoms: _111  and  _113
REMARK   45  A    between atoms: _113  and  _114
REMARK   46  A    between atoms: _113  and  _116
REMARK   47  A    between atoms: _116  and  _117
REMARK   48  A    between atoms: _122  and  _124
REMARK   49  A    between atoms: _124  and  _125
REMARK   50  A    between atoms: _127  and  _129
REMARK   51  A    between atoms: _129  and  _130
REMARK   52  A    between atoms: _132  and  _134
REMARK   53  A    between atoms: _134  and  _135
REMARK   54  A    between atoms: _134  and  _137
REMARK   55  A    between atoms: _137  and  _138
REMARK   56  A    between atoms: _141  and  _143
REMARK   57  A    between atoms: _143  and  _144
REMARK   58  A    between atoms: _143  and  _146
REMARK   59  A    between atoms: _146  and  _147
REMARK   60  A    between atoms: _147  and  _148
REMARK   61  A    between atoms: _151  and  _153
REMARK   62  A    between atoms: _153  and  _154
REMARK   63  A    between atoms: _153  and  _156
REMARK   64  A    between atoms: _156  and  _157
REMARK   65  A    between atoms: _160  and  _162
REMARK   66  A    between atoms: _162  and  _163
REMARK   67  A    between atoms: _162  and  _165
REMARK   68  A    between atoms: _165  and  _166
REMARK   69  A    between atoms: _176  and  _178
REMARK   70  A    between atoms: _178  and  _179
REMARK   71  A    between atoms: _178  and  _181
REMARK   72  A    between atoms: _181  and  _182
REMARK   73  A    between atoms: _185  and  _187
REMARK   74  A    between atoms: _187  and  _188
REMARK   75  A    between atoms: _187  and  _190
REMARK   76  A    between atoms: _190  and  _191
REMARK   77  A    between atoms: _191  and  _192
REMARK   78  A    between atoms: _197  and  _199
REMARK   79  A    between atoms: _199  and  _200
REMARK   80  A    between atoms: _199  and  _202
REMARK   81  A    between atoms: _205  and  _207
REMARK   82  A    between atoms: _207  and  _208
REMARK   83  A    between atoms: _207  and  _210
REMARK   84  A    between atoms: _210  and  _211
REMARK   85  A    between atoms: _221  and  _223
REMARK   86  A    between atoms: _223  and  _224
REMARK   87  A    between atoms: _223  and  _226
REMARK   88  A    between atoms: _226  and  _227
REMARK   89  A    between atoms: _230  and  _232
REMARK   90  A    between atoms: _232  and  _233
REMARK   91  A    between atoms: _232  and  _235
REMARK   92  A    between atoms: _235  and  _236
REMARK   93  A    between atoms: _239  and  _241
REMARK   94  A    between atoms: _241  and  _242
REMARK   95  A    between atoms: _241  and  _244
REMARK   96  A    between atoms: _244  and  _245
REMARK   97  A    between atoms: _247  and  _249
REMARK   98  A    between atoms: _249  and  _250
REMARK   99  A    between atoms: _249  and  _252
REMARK  100  A    between atoms: _252  and  _253
REMARK  101  A    between atoms: _258  and  _259
REMARK  102  A    between atoms: _261  and  _263
REMARK  103  A    between atoms: _263  and  _264
REMARK  104  A    between atoms: _263  and  _266
REMARK  105  A    between atoms: _266  and  _267
REMARK  106  A    between atoms: _272  and  _273
REMARK  107  A    between atoms: _275  and  _277
REMARK  108  A    between atoms: _277  and  _278
REMARK  109  A    between atoms: _277  and  _280
REMARK  110  A    between atoms: _280  and  _281
REMARK  111  A    between atoms: _284  and  _286
REMARK  112  A    between atoms: _286  and  _287
REMARK  113  A    between atoms: _286  and  _289
REMARK  114  A    between atoms: _289  and  _290
REMARK  115  A    between atoms: _300  and  _302
REMARK  116  A    between atoms: _302  and  _303
REMARK  117  A    between atoms: _302  and  _305
REMARK  118  A    between atoms: _305  and  _306
REMARK  119  A    between atoms: _311  and  _313
REMARK  120  A    between atoms: _313  and  _314
REMARK  121  A    between atoms: _313  and  _316
REMARK  122  A    between atoms: _316  and  _317
REMARK  123  A    between atoms: _327  and  _329
REMARK  124  A    between atoms: _329  and  _330
REMARK  125  A    between atoms: _329  and  _332
REMARK  126  A    between atoms: _334  and  _336
REMARK  127  A    between atoms: _336  and  _337
REMARK  128  A    between atoms: _336  and  _339
REMARK  129  A    between atoms: _339  and  _340
REMARK  130  A    between atoms: _342  and  _344
REMARK  131  A    between atoms: _344  and  _345
REMARK  132  A    between atoms: _348  and  _350
REMARK  133  A    between atoms: _350  and  _351
REMARK  134  A    between atoms: _350  and  _353
REMARK  135  A    between atoms: _353  and  _354
REMARK  136  A    between atoms: _364  and  _366
REMARK  137  A    between atoms: _366  and  _367
REMARK  138  A    between atoms: _366  and  _369
REMARK  139  A    between atoms: _369  and  _370
REMARK  140  A    between atoms: _370  and  _371
REMARK                            x       y       z     vdW  Elec       q    Type
REMARK                         _______ _______ _______ _____ _____    ______ ____
ROOT
ATOM      1  O   HOH     1     -39.302  -3.688 182.591  0.00  0.00    +0.000 OA
ENDROOT
TORSDOF 0
REMARK  Name = ../refined-set-2016/3wmc/3wmc_pocket.pdb
REMARK  140 active torsions:
REMARK  status: ('A' for Active; 'I' for Inactive)
REMARK    1  A    between atoms: _1  and  _3
REMARK    2  A    between atoms: _3  and  _4
REMARK    3  A    between atoms: _3  and  _6
REMARK    4  A    between atoms: _6  and  _7
REMARK    5  A    between atoms: _10  and  _12
REMARK    6  A    between atoms: _12  and  _13
REMARK    7  A    between atoms: _12  and  _15
REMARK    8  A    between atoms: _15  and  _16
REMARK    9  A    between atoms: _16  and  _17
REMARK   10  A    between atoms: _17  and  _18
REMARK   11  A    between atoms: _27  and  _29
REMARK   12  A    between atoms: _29  and  _30
REMARK   13  A    between atoms: _29  and  _32
REMARK   14  A    between atoms: _32  and  _33
REMARK   15  A    between atoms: _38  and  _40
REMARK   16  A    between atoms: _40  and  _41
REMARK   17  A    between atoms: _40  and  _43
REMARK   18  A    between atoms: _43  and  _44
REMARK   19  A    between atoms: _47  and  _49
REMARK   20  A    between atoms: _49  and  _50
REMARK   21  A    between atoms: _49  and  _52
REMARK   22  A    between atoms: _52  and  _53
REMARK   23  A    between atoms: _53  and  _54
REMARK   24  A    between atoms: _57  and  _59
REMARK   25  A    between atoms: _59  and  _60
REMARK   26  A    between atoms: _59  and  _62
REMARK   27  A    between atoms: _62  and  _63
REMARK   28  A    between atoms: _66  and  _68
REMARK   29  A    between atoms: _68  and  _69
REMARK   30  A    between atoms: _68  and  _71
REMARK   31  A    between atoms: _71  and  _72
REMARK   32  A    between atoms: _77  and  _79
REMARK   33  A    between atoms: _79  and  _80
REMARK   34  A    between atoms: _79  and  _82
REMARK   35  A    between atoms: _82  and  _83
REMARK   36  A    between atoms: _93  and  _95
REMARK   37  A    between atoms: _95  and  _96
REMARK   38  A    between atoms: _95  and  _98
REMARK   39  A    between atoms: _101  and  _103
REMARK   40  A    between atoms: _103  and  _104
REMARK   41  A    between atoms: _103  and  _106
REMARK   42  A    between atoms: _106  and  _107
REMARK   43  A    between atoms: _107  and  _108
REMARK   44  A    between atoms: _111  and  _113
REMARK   45  A    between atoms: _113  and  _114
REMARK   46  A    between atoms: _113  and  _116
REMARK   47  A    between atoms: _116  and  _117
REMARK   48  A    between atoms: _122  and  _124
REMARK   49  A    between atoms: _124  and  _125
REMARK   50  A    between atoms: _127  and  _129
REMARK   51  A    between atoms: _129  and  _130
REMARK   52  A    between atoms: _132  and  _134
REMARK   53  A    between atoms: _134  and  _135
REMARK   54  A    between atoms: _134  and  _137
REMARK   55  A    between atoms: _137  and  _138
REMARK   56  A    between atoms: _141  and  _143
REMARK   57  A    between atoms: _143  and  _144
REMARK   58  A    between atoms: _143  and  _146
REMARK   59  A    between atoms: _146  and  _147
REMARK   60  A    between atoms: _147  and  _148
REMARK   61  A    between atoms: _151  and  _153
REMARK   62  A    between atoms: _153  and  _154
REMARK   63  A    between atoms: _153  and  _156
REMARK   64  A    between atoms: _156  and  _157
REMARK   65  A    between atoms: _160  and  _162
REMARK   66  A    between atoms: _162  and  _163
REMARK   67  A    between atoms: _162  and  _165
REMARK   68  A    between atoms: _165  and  _166
REMARK   69  A    between atoms: _176  and  _178
REMARK   70  A    between atoms: _178  and  _179
REMARK   71  A    between atoms: _178  and  _181
REMARK   72  A    between atoms: _181  and  _182
REMARK   73  A    between atoms: _185  and  _187
REMARK   74  A    between atoms: _187  and  _188
REMARK   75  A    between atoms: _187  and  _190
REMARK   76  A    between atoms: _190  and  _191
REMARK   77  A    between atoms: _191  and  _192
REMARK   78  A    between atoms: _197  and  _199
REMARK   79  A    between atoms: _199  and  _200
REMARK   80  A    between atoms: _199  and  _202
REMARK   81  A    between atoms: _205  and  _207
REMARK   82  A    between atoms: _207  and  _208
REMARK   83  A    between atoms: _207  and  _210
REMARK   84  A    between atoms: _210  and  _211
REMARK   85  A    between atoms: _221  and  _223
REMARK   86  A    between atoms: _223  and  _224
REMARK   87  A    between atoms: _223  and  _226
REMARK   88  A    between atoms: _226  and  _227
REMARK   89  A    between atoms: _230  and  _232
REMARK   90  A    between atoms: _232  and  _233
REMARK   91  A    between atoms: _232  and  _235
REMARK   92  A    between atoms: _235  and  _236
REMARK   93  A    between atoms: _239  and  _241
REMARK   94  A    between atoms: _241  and  _242
REMARK   95  A    between atoms: _241  and  _244
REMARK   96  A    between atoms: _244  and  _245
REMARK   97  A    between atoms: _247  and  _249
REMARK   98  A    between atoms: _249  and  _250
REMARK   99  A    between atoms: _249  and  _252
REMARK  100  A    between atoms: _252  and  _253
REMARK  101  A    between atoms: _258  and  _259
REMARK  102  A    between atoms: _261  and  _263
REMARK  103  A    between atoms: _263  and  _264
REMARK  104  A    between atoms: _263  and  _266
REMARK  105  A    between atoms: _266  and  _267
REMARK  106  A    between atoms: _272  and  _273
REMARK  107  A    between atoms: _275  and  _277
REMARK  108  A    between atoms: _277  and  _278
REMARK  109  A    between atoms: _277  and  _280
REMARK  110  A    between atoms: _280  and  _281
REMARK  111  A    between atoms: _284  and  _286
REMARK  112  A    between atoms: _286  and  _287
REMARK  113  A    between atoms: _286  and  _289
REMARK  114  A    between atoms: _289  and  _290
REMARK  115  A    between atoms: _300  and  _302
REMARK  116  A    between atoms: _302  and  _303
REMARK  117  A    between atoms: _302  and  _305
REMARK  118  A    between atoms: _305  and  _306
REMARK  119  A    between atoms: _311  and  _313
REMARK  120  A    between atoms: _313  and  _314
REMARK  121  A    between atoms: _313  and  _316
REMARK  122  A    between atoms: _316  and  _317
REMARK  123  A    between atoms: _327  and  _329
REMARK  124  A    between atoms: _329  and  _330
REMARK  125  A    between atoms: _329  and  _332
REMARK  126  A    between atoms: _334  and  _336
REMARK  127  A    between atoms: _336  and  _337
REMARK  128  A    between atoms: _336  and  _339
REMARK  129  A    between atoms: _339  and  _340
REMARK  130  A    between atoms: _342  and  _344
REMARK  131  A    between atoms: _344  and  _345
REMARK  132  A    between atoms: _348  and  _350
REMARK  133  A    between atoms: _350  and  _351
REMARK  134  A    between atoms: _350  and  _353
REMARK  135  A    between atoms: _353  and  _354
REMARK  136  A    between atoms: _364  and  _366
REMARK  137  A    between atoms: _366  and  _367
REMARK  138  A    between atoms: _366  and  _369
REMARK  139  A    between atoms: _369  and  _370
REMARK  140  A    between atoms: _370  and  _371
REMARK                            x       y       z     vdW  Elec       q    Type
REMARK                         _______ _______ _______ _____ _____    ______ ____
ROOT
ATOM      1  O   HOH     1     -29.004   6.929 185.324  0.00  0.00    +0.000 OA
ENDROOT
TORSDOF 0
REMARK  Name = ../refined-set-2016/3wmc/3wmc_pocket.pdb
REMARK  140 active torsions:
REMARK  status: ('A' for Active; 'I' for Inactive)
REMARK    1  A    between atoms: _1  and  _3
REMARK    2  A    between atoms: _3  and  _4
REMARK    3  A    between atoms: _3  and  _6
REMARK    4  A    between atoms: _6  and  _7
REMARK    5  A    between atoms: _10  and  _12
REMARK    6  A    between atoms: _12  and  _13
REMARK    7  A    between atoms: _12  and  _15
REMARK    8  A    between atoms: _15  and  _16
REMARK    9  A    between atoms: _16  and  _17
REMARK   10  A    between atoms: _17  and  _18
REMARK   11  A    between atoms: _27  and  _29
REMARK   12  A    between atoms: _29  and  _30
REMARK   13  A    between atoms: _29  and  _32
REMARK   14  A    between atoms: _32  and  _33
REMARK   15  A    between atoms: _38  and  _40
REMARK   16  A    between atoms: _40  and  _41
REMARK   17  A    between atoms: _40  and  _43
REMARK   18  A    between atoms: _43  and  _44
REMARK   19  A    between atoms: _47  and  _49
REMARK   20  A    between atoms: _49  and  _50
REMARK   21  A    between atoms: _49  and  _52
REMARK   22  A    between atoms: _52  and  _53
REMARK   23  A    between atoms: _53  and  _54
REMARK   24  A    between atoms: _57  and  _59
REMARK   25  A    between atoms: _59  and  _60
REMARK   26  A    between atoms: _59  and  _62
REMARK   27  A    between atoms: _62  and  _63
REMARK   28  A    between atoms: _66  and  _68
REMARK   29  A    between atoms: _68  and  _69
REMARK   30  A    between atoms: _68  and  _71
REMARK   31  A    between atoms: _71  and  _72
REMARK   32  A    between atoms: _77  and  _79
REMARK   33  A    between atoms: _79  and  _80
REMARK   34  A    between atoms: _79  and  _82
REMARK   35  A    between atoms: _82  and  _83
REMARK   36  A    between atoms: _93  and  _95
REMARK   37  A    between atoms: _95  and  _96
REMARK   38  A    between atoms: _95  and  _98
REMARK   39  A    between atoms: _101  and  _103
REMARK   40  A    between atoms: _103  and  _104
REMARK   41  A    between atoms: _103  and  _106
REMARK   42  A    between atoms: _106  and  _107
REMARK   43  A    between atoms: _107  and  _108
REMARK   44  A    between atoms: _111  and  _113
REMARK   45  A    between atoms: _113  and  _114
REMARK   46  A    between atoms: _113  and  _116
REMARK   47  A    between atoms: _116  and  _117
REMARK   48  A    between atoms: _122  and  _124
REMARK   49  A    between atoms: _124  and  _125
REMARK   50  A    between atoms: _127  and  _129
REMARK   51  A    between atoms: _129  and  _130
REMARK   52  A    between atoms: _132  and  _134
REMARK   53  A    between atoms: _134  and  _135
REMARK   54  A    between atoms: _134  and  _137
REMARK   55  A    between atoms: _137  and  _138
REMARK   56  A    between atoms: _141  and  _143
REMARK   57  A    between atoms: _143  and  _144
REMARK   58  A    between atoms: _143  and  _146
REMARK   59  A    between atoms: _146  and  _147
REMARK   60  A    between atoms: _147  and  _148
REMARK   61  A    between atoms: _151  and  _153
REMARK   62  A    between atoms: _153  and  _154
REMARK   63  A    between atoms: _153  and  _156
REMARK   64  A    between atoms: _156  and  _157
REMARK   65  A    between atoms: _160  and  _162
REMARK   66  A    between atoms: _162  and  _163
REMARK   67  A    between atoms: _162  and  _165
REMARK   68  A    between atoms: _165  and  _166
REMARK   69  A    between atoms: _176  and  _178
REMARK   70  A    between atoms: _178  and  _179
REMARK   71  A    between atoms: _178  and  _181
REMARK   72  A    between atoms: _181  and  _182
REMARK   73  A    between atoms: _185  and  _187
REMARK   74  A    between atoms: _187  and  _188
REMARK   75  A    between atoms: _187  and  _190
REMARK   76  A    between atoms: _190  and  _191
REMARK   77  A    between atoms: _191  and  _192
REMARK   78  A    between atoms: _197  and  _199
REMARK   79  A    between atoms: _199  and  _200
REMARK   80  A    between atoms: _199  and  _202
REMARK   81  A    between atoms: _205  and  _207
REMARK   82  A    between atoms: _207  and  _208
REMARK   83  A    between atoms: _207  and  _210
REMARK   84  A    between atoms: _210  and  _211
REMARK   85  A    between atoms: _221  and  _223
REMARK   86  A    between atoms: _223  and  _224
REMARK   87  A    between atoms: _223  and  _226
REMARK   88  A    between atoms: _226  and  _227
REMARK   89  A    between atoms: _230  and  _232
REMARK   90  A    between atoms: _232  and  _233
REMARK   91  A    between atoms: _232  and  _235
REMARK   92  A    between atoms: _235  and  _236
REMARK   93  A    between atoms: _239  and  _241
REMARK   94  A    between atoms: _241  and  _242
REMARK   95  A    between atoms: _241  and  _244
REMARK   96  A    between atoms: _244  and  _245
REMARK   97  A    between atoms: _247  and  _249
REMARK   98  A    between atoms: _249  and  _250
REMARK   99  A    between atoms: _249  and  _252
REMARK  100  A    between atoms: _252  and  _253
REMARK  101  A    between atoms: _258  and  _259
REMARK  102  A    between atoms: _261  and  _263
REMARK  103  A    between atoms: _263  and  _264
REMARK  104  A    between atoms: _263  and  _266
REMARK  105  A    between atoms: _266  and  _267
REMARK  106  A    between atoms: _272  and  _273
REMARK  107  A    between atoms: _275  and  _277
REMARK  108  A    between atoms: _277  and  _278
REMARK  109  A    between atoms: _277  and  _280
REMARK  110  A    between atoms: _280  and  _281
REMARK  111  A    between atoms: _284  and  _286
REMARK  112  A    between atoms: _286  and  _287
REMARK  113  A    between atoms: _286  and  _289
REMARK  114  A    between atoms: _289  and  _290
REMARK  115  A    between atoms: _300  and  _302
REMARK  116  A    between atoms: _302  and  _303
REMARK  117  A    between atoms: _302  and  _305
REMARK  118  A    between atoms: _305  and  _306
REMARK  119  A    between atoms: _311  and  _313
REMARK  120  A    between atoms: _313  and  _314
REMARK  121  A    between atoms: _313  and  _316
REMARK  122  A    between atoms: _316  and  _317
REMARK  123  A    between atoms: _327  and  _329
REMARK  124  A    between atoms: _329  and  _330
REMARK  125  A    between atoms: _329  and  _332
REMARK  126  A    between atoms: _334  and  _336
REMARK  127  A    between atoms: _336  and  _337
REMARK  128  A    between atoms: _336  and  _339
REMARK  129  A    between atoms: _339  and  _340
REMARK  130  A    between atoms: _342  and  _344
REMARK  131  A    between atoms: _344  and  _345
REMARK  132  A    between atoms: _348  and  _350
REMARK  133  A    between atoms: _350  and  _351
REMARK  134  A    between atoms: _350  and  _353
REMARK  135  A    between atoms: _353  and  _354
REMARK  136  A    between atoms: _364  and  _366
REMARK  137  A    between atoms: _366  and  _367
REMARK  138  A    between atoms: _366  and  _369
REMARK  139  A    between atoms: _369  and  _370
REMARK  140  A    between atoms: _370  and  _371
REMARK                            x       y       z     vdW  Elec       q    Type
REMARK                         _______ _______ _______ _____ _____    ______ ____
ROOT
ATOM      1  O   HOH     1     -40.007  -2.117 185.012  0.00  0.00    +0.000 OA
ENDROOT
TORSDOF 0
REMARK  Name = ../refined-set-2016/3wmc/3wmc_pocket.pdb
REMARK  140 active torsions:
REMARK  status: ('A' for Active; 'I' for Inactive)
REMARK    1  A    between atoms: _1  and  _3
REMARK    2  A    between atoms: _3  and  _4
REMARK    3  A    between atoms: _3  and  _6
REMARK    4  A    between atoms: _6  and  _7
REMARK    5  A    between atoms: _10  and  _12
REMARK    6  A    between atoms: _12  and  _13
REMARK    7  A    between atoms: _12  and  _15
REMARK    8  A    between atoms: _15  and  _16
REMARK    9  A    between atoms: _16  and  _17
REMARK   10  A    between atoms: _17  and  _18
REMARK   11  A    between atoms: _27  and  _29
REMARK   12  A    between atoms: _29  and  _30
REMARK   13  A    between atoms: _29  and  _32
REMARK   14  A    between atoms: _32  and  _33
REMARK   15  A    between atoms: _38  and  _40
REMARK   16  A    between atoms: _40  and  _41
REMARK   17  A    between atoms: _40  and  _43
REMARK   18  A    between atoms: _43  and  _44
REMARK   19  A    between atoms: _47  and  _49
REMARK   20  A    between atoms: _49  and  _50
REMARK   21  A    between atoms: _49  and  _52
REMARK   22  A    between atoms: _52  and  _53
REMARK   23  A    between atoms: _53  and  _54
REMARK   24  A    between atoms: _57  and  _59
REMARK   25  A    between atoms: _59  and  _60
REMARK   26  A    between atoms: _59  and  _62
REMARK   27  A    between atoms: _62  and  _63
REMARK   28  A    between atoms: _66  and  _68
REMARK   29  A    between atoms: _68  and  _69
REMARK   30  A    between atoms: _68  and  _71
REMARK   31  A    between atoms: _71  and  _72
REMARK   32  A    between atoms: _77  and  _79
REMARK   33  A    between atoms: _79  and  _80
REMARK   34  A    between atoms: _79  and  _82
REMARK   35  A    between atoms: _82  and  _83
REMARK   36  A    between atoms: _93  and  _95
REMARK   37  A    between atoms: _95  and  _96
REMARK   38  A    between atoms: _95  and  _98
REMARK   39  A    between atoms: _101  and  _103
REMARK   40  A    between atoms: _103  and  _104
REMARK   41  A    between atoms: _103  and  _106
REMARK   42  A    between atoms: _106  and  _107
REMARK   43  A    between atoms: _107  and  _108
REMARK   44  A    between atoms: _111  and  _113
REMARK   45  A    between atoms: _113  and  _114
REMARK   46  A    between atoms: _113  and  _116
REMARK   47  A    between atoms: _116  and  _117
REMARK   48  A    between atoms: _122  and  _124
REMARK   49  A    between atoms: _124  and  _125
REMARK   50  A    between atoms: _127  and  _129
REMARK   51  A    between atoms: _129  and  _130
REMARK   52  A    between atoms: _132  and  _134
REMARK   53  A    between atoms: _134  and  _135
REMARK   54  A    between atoms: _134  and  _137
REMARK   55  A    between atoms: _137  and  _138
REMARK   56  A    between atoms: _141  and  _143
REMARK   57  A    between atoms: _143  and  _144
REMARK   58  A    between atoms: _143  and  _146
REMARK   59  A    between atoms: _146  and  _147
REMARK   60  A    between atoms: _147  and  _148
REMARK   61  A    between atoms: _151  and  _153
REMARK   62  A    between atoms: _153  and  _154
REMARK   63  A    between atoms: _153  and  _156
REMARK   64  A    between atoms: _156  and  _157
REMARK   65  A    between atoms: _160  and  _162
REMARK   66  A    between atoms: _162  and  _163
REMARK   67  A    between atoms: _162  and  _165
REMARK   68  A    between atoms: _165  and  _166
REMARK   69  A    between atoms: _176  and  _178
REMARK   70  A    between atoms: _178  and  _179
REMARK   71  A    between atoms: _178  and  _181
REMARK   72  A    between atoms: _181  and  _182
REMARK   73  A    between atoms: _185  and  _187
REMARK   74  A    between atoms: _187  and  _188
REMARK   75  A    between atoms: _187  and  _190
REMARK   76  A    between atoms: _190  and  _191
REMARK   77  A    between atoms: _191  and  _192
REMARK   78  A    between atoms: _197  and  _199
REMARK   79  A    between atoms: _199  and  _200
REMARK   80  A    between atoms: _199  and  _202
REMARK   81  A    between atoms: _205  and  _207
REMARK   82  A    between atoms: _207  and  _208
REMARK   83  A    between atoms: _207  and  _210
REMARK   84  A    between atoms: _210  and  _211
REMARK   85  A    between atoms: _221  and  _223
REMARK   86  A    between atoms: _223  and  _224
REMARK   87  A    between atoms: _223  and  _226
REMARK   88  A    between atoms: _226  and  _227
REMARK   89  A    between atoms: _230  and  _232
REMARK   90  A    between atoms: _232  and  _233
REMARK   91  A    between atoms: _232  and  _235
REMARK   92  A    between atoms: _235  and  _236
REMARK   93  A    between atoms: _239  and  _241
REMARK   94  A    between atoms: _241  and  _242
REMARK   95  A    between atoms: _241  and  _244
REMARK   96  A    between atoms: _244  and  _245
REMARK   97  A    between atoms: _247  and  _249
REMARK   98  A    between atoms: _249  and  _250
REMARK   99  A    between atoms: _249  and  _252
REMARK  100  A    between atoms: _252  and  _253
REMARK  101  A    between atoms: _258  and  _259
REMARK  102  A    between atoms: _261  and  _263
REMARK  103  A    between atoms: _263  and  _264
REMARK  104  A    between atoms: _263  and  _266
REMARK  105  A    between atoms: _266  and  _267
REMARK  106  A    between atoms: _272  and  _273
REMARK  107  A    between atoms: _275  and  _277
REMARK  108  A    between atoms: _277  and  _278
REMARK  109  A    between atoms: _277  and  _280
REMARK  110  A    between atoms: _280  and  _281
REMARK  111  A    between atoms: _284  and  _286
REMARK  112  A    between atoms: _286  and  _287
REMARK  113  A    between atoms: _286  and  _289
REMARK  114  A    between atoms: _289  and  _290
REMARK  115  A    between atoms: _300  and  _302
REMARK  116  A    between atoms: _302  and  _303
REMARK  117  A    between atoms: _302  and  _305
REMARK  118  A    between atoms: _305  and  _306
REMARK  119  A    between atoms: _311  and  _313
REMARK  120  A    between atoms: _313  and  _314
REMARK  121  A    between atoms: _313  and  _316
REMARK  122  A    between atoms: _316  and  _317
REMARK  123  A    between atoms: _327  and  _329
REMARK  124  A    between atoms: _329  and  _330
REMARK  125  A    between atoms: _329  and  _332
REMARK  126  A    between atoms: _334  and  _336
REMARK  127  A    between atoms: _336  and  _337
REMARK  128  A    between atoms: _336  and  _339
REMARK  129  A    between atoms: _339  and  _340
REMARK  130  A    between atoms: _342  and  _344
REMARK  131  A    between atoms: _344  and  _345
REMARK  132  A    between atoms: _348  and  _350
REMARK  133  A    between atoms: _350  and  _351
REMARK  134  A    between atoms: _350  and  _353
REMARK  135  A    between atoms: _353  and  _354
REMARK  136  A    between atoms: _364  and  _366
REMARK  137  A    between atoms: _366  and  _367
REMARK  138  A    between atoms: _366  and  _369
REMARK  139  A    between atoms: _369  and  _370
REMARK  140  A    between atoms: _370  and  _371
REMARK                            x       y       z     vdW  Elec       q    Type
REMARK                         _______ _______ _______ _____ _____    ______ ____
ROOT
ATOM      1  O   HOH     1     -37.414  -3.398 180.433  0.00  0.00    +0.000 OA
ENDROOT
TORSDOF 0
REMARK  Name = ../refined-set-2016/3wmc/3wmc_pocket.pdb
REMARK  140 active torsions:
REMARK  status: ('A' for Active; 'I' for Inactive)
REMARK    1  A    between atoms: _1  and  _3
REMARK    2  A    between atoms: _3  and  _4
REMARK    3  A    between atoms: _3  and  _6
REMARK    4  A    between atoms: _6  and  _7
REMARK    5  A    between atoms: _10  and  _12
REMARK    6  A    between atoms: _12  and  _13
REMARK    7  A    between atoms: _12  and  _15
REMARK    8  A    between atoms: _15  and  _16
REMARK    9  A    between atoms: _16  and  _17
REMARK   10  A    between atoms: _17  and  _18
REMARK   11  A    between atoms: _27  and  _29
REMARK   12  A    between atoms: _29  and  _30
REMARK   13  A    between atoms: _29  and  _32
REMARK   14  A    between atoms: _32  and  _33
REMARK   15  A    between atoms: _38  and  _40
REMARK   16  A    between atoms: _40  and  _41
REMARK   17  A    between atoms: _40  and  _43
REMARK   18  A    between atoms: _43  and  _44
REMARK   19  A    between atoms: _47  and  _49
REMARK   20  A    between atoms: _49  and  _50
REMARK   21  A    between atoms: _49  and  _52
REMARK   22  A    between atoms: _52  and  _53
REMARK   23  A    between atoms: _53  and  _54
REMARK   24  A    between atoms: _57  and  _59
REMARK   25  A    between atoms: _59  and  _60
REMARK   26  A    between atoms: _59  and  _62
REMARK   27  A    between atoms: _62  and  _63
REMARK   28  A    between atoms: _66  and  _68
REMARK   29  A    between atoms: _68  and  _69
REMARK   30  A    between atoms: _68  and  _71
REMARK   31  A    between atoms: _71  and  _72
REMARK   32  A    between atoms: _77  and  _79
REMARK   33  A    between atoms: _79  and  _80
REMARK   34  A    between atoms: _79  and  _82
REMARK   35  A    between atoms: _82  and  _83
REMARK   36  A    between atoms: _93  and  _95
REMARK   37  A    between atoms: _95  and  _96
REMARK   38  A    between atoms: _95  and  _98
REMARK   39  A    between atoms: _101  and  _103
REMARK   40  A    between atoms: _103  and  _104
REMARK   41  A    between atoms: _103  and  _106
REMARK   42  A    between atoms: _106  and  _107
REMARK   43  A    between atoms: _107  and  _108
REMARK   44  A    between atoms: _111  and  _113
REMARK   45  A    between atoms: _113  and  _114
REMARK   46  A    between atoms: _113  and  _116
REMARK   47  A    between atoms: _116  and  _117
REMARK   48  A    between atoms: _122  and  _124
REMARK   49  A    between atoms: _124  and  _125
REMARK   50  A    between atoms: _127  and  _129
REMARK   51  A    between atoms: _129  and  _130
REMARK   52  A    between atoms: _132  and  _134
REMARK   53  A    between atoms: _134  and  _135
REMARK   54  A    between atoms: _134  and  _137
REMARK   55  A    between atoms: _137  and  _138
REMARK   56  A    between atoms: _141  and  _143
REMARK   57  A    between atoms: _143  and  _144
REMARK   58  A    between atoms: _143  and  _146
REMARK   59  A    between atoms: _146  and  _147
REMARK   60  A    between atoms: _147  and  _148
REMARK   61  A    between atoms: _151  and  _153
REMARK   62  A    between atoms: _153  and  _154
REMARK   63  A    between atoms: _153  and  _156
REMARK   64  A    between atoms: _156  and  _157
REMARK   65  A    between atoms: _160  and  _162
REMARK   66  A    between atoms: _162  and  _163
REMARK   67  A    between atoms: _162  and  _165
REMARK   68  A    between atoms: _165  and  _166
REMARK   69  A    between atoms: _176  and  _178
REMARK   70  A    between atoms: _178  and  _179
REMARK   71  A    between atoms: _178  and  _181
REMARK   72  A    between atoms: _181  and  _182
REMARK   73  A    between atoms: _185  and  _187
REMARK   74  A    between atoms: _187  and  _188
REMARK   75  A    between atoms: _187  and  _190
REMARK   76  A    between atoms: _190  and  _191
REMARK   77  A    between atoms: _191  and  _192
REMARK   78  A    between atoms: _197  and  _199
REMARK   79  A    between atoms: _199  and  _200
REMARK   80  A    between atoms: _199  and  _202
REMARK   81  A    between atoms: _205  and  _207
REMARK   82  A    between atoms: _207  and  _208
REMARK   83  A    between atoms: _207  and  _210
REMARK   84  A    between atoms: _210  and  _211
REMARK   85  A    between atoms: _221  and  _223
REMARK   86  A    between atoms: _223  and  _224
REMARK   87  A    between atoms: _223  and  _226
REMARK   88  A    between atoms: _226  and  _227
REMARK   89  A    between atoms: _230  and  _232
REMARK   90  A    between atoms: _232  and  _233
REMARK   91  A    between atoms: _232  and  _235
REMARK   92  A    between atoms: _235  and  _236
REMARK   93  A    between atoms: _239  and  _241
REMARK   94  A    between atoms: _241  and  _242
REMARK   95  A    between atoms: _241  and  _244
REMARK   96  A    between atoms: _244  and  _245
REMARK   97  A    between atoms: _247  and  _249
REMARK   98  A    between atoms: _249  and  _250
REMARK   99  A    between atoms: _249  and  _252
REMARK  100  A    between atoms: _252  and  _253
REMARK  101  A    between atoms: _258  and  _259
REMARK  102  A    between atoms: _261  and  _263
REMARK  103  A    between atoms: _263  and  _264
REMARK  104  A    between atoms: _263  and  _266
REMARK  105  A    between atoms: _266  and  _267
REMARK  106  A    between atoms: _272  and  _273
REMARK  107  A    between atoms: _275  and  _277
REMARK  108  A    between atoms: _277  and  _278
REMARK  109  A    between atoms: _277  and  _280
REMARK  110  A    between atoms: _280  and  _281
REMARK  111  A    between atoms: _284  and  _286
REMARK  112  A    between atoms: _286  and  _287
REMARK  113  A    between atoms: _286  and  _289
REMARK  114  A    between atoms: _289  and  _290
REMARK  115  A    between atoms: _300  and  _302
REMARK  116  A    between atoms: _302  and  _303
REMARK  117  A    between atoms: _302  and  _305
REMARK  118  A    between atoms: _305  and  _306
REMARK  119  A    between atoms: _311  and  _313
REMARK  120  A    between atoms: _313  and  _314
REMARK  121  A    between atoms: _313  and  _316
REMARK  122  A    between atoms: _316  and  _317
REMARK  123  A    between atoms: _327  and  _329
REMARK  124  A    between atoms: _329  and  _330
REMARK  125  A    between atoms: _329  and  _332
REMARK  126  A    between atoms: _334  and  _336
REMARK  127  A    between atoms: _336  and  _337
REMARK  128  A    between atoms: _336  and  _339
REMARK  129  A    between atoms: _339  and  _340
REMARK  130  A    between atoms: _342  and  _344
REMARK  131  A    between atoms: _344  and  _345
REMARK  132  A    between atoms: _348  and  _350
REMARK  133  A    between atoms: _350  and  _351
REMARK  134  A    between atoms: _350  and  _353
REMARK  135  A    between atoms: _353  and  _354
REMARK  136  A    between atoms: _364  and  _366
REMARK  137  A    between atoms: _366  and  _367
REMARK  138  A    between atoms: _366  and  _369
REMARK  139  A    between atoms: _369  and  _370
REMARK  140  A    between atoms: _370  and  _371
REMARK                            x       y       z     vdW  Elec       q    Type
REMARK                         _______ _______ _______ _____ _____    ______ ____
ROOT
ATOM      1  O   HOH     1     -32.401  -7.094 183.900  0.00  0.00    +0.000 OA
ENDROOT
TORSDOF 0
REMARK  Name = ../refined-set-2016/3wmc/3wmc_pocket.pdb
REMARK  140 active torsions:
REMARK  status: ('A' for Active; 'I' for Inactive)
REMARK    1  A    between atoms: _1  and  _3
REMARK    2  A    between atoms: _3  and  _4
REMARK    3  A    between atoms: _3  and  _6
REMARK    4  A    between atoms: _6  and  _7
REMARK    5  A    between atoms: _10  and  _12
REMARK    6  A    between atoms: _12  and  _13
REMARK    7  A    between atoms: _12  and  _15
REMARK    8  A    between atoms: _15  and  _16
REMARK    9  A    between atoms: _16  and  _17
REMARK   10  A    between atoms: _17  and  _18
REMARK   11  A    between atoms: _27  and  _29
REMARK   12  A    between atoms: _29  and  _30
REMARK   13  A    between atoms: _29  and  _32
REMARK   14  A    between atoms: _32  and  _33
REMARK   15  A    between atoms: _38  and  _40
REMARK   16  A    between atoms: _40  and  _41
REMARK   17  A    between atoms: _40  and  _43
REMARK   18  A    between atoms: _43  and  _44
REMARK   19  A    between atoms: _47  and  _49
REMARK   20  A    between atoms: _49  and  _50
REMARK   21  A    between atoms: _49  and  _52
REMARK   22  A    between atoms: _52  and  _53
REMARK   23  A    between atoms: _53  and  _54
REMARK   24  A    between atoms: _57  and  _59
REMARK   25  A    between atoms: _59  and  _60
REMARK   26  A    between atoms: _59  and  _62
REMARK   27  A    between atoms: _62  and  _63
REMARK   28  A    between atoms: _66  and  _68
REMARK   29  A    between atoms: _68  and  _69
REMARK   30  A    between atoms: _68  and  _71
REMARK   31  A    between atoms: _71  and  _72
REMARK   32  A    between atoms: _77  and  _79
REMARK   33  A    between atoms: _79  and  _80
REMARK   34  A    between atoms: _79  and  _82
REMARK   35  A    between atoms: _82  and  _83
REMARK   36  A    between atoms: _93  and  _95
REMARK   37  A    between atoms: _95  and  _96
REMARK   38  A    between atoms: _95  and  _98
REMARK   39  A    between atoms: _101  and  _103
REMARK   40  A    between atoms: _103  and  _104
REMARK   41  A    between atoms: _103  and  _106
REMARK   42  A    between atoms: _106  and  _107
REMARK   43  A    between atoms: _107  and  _108
REMARK   44  A    between atoms: _111  and  _113
REMARK   45  A    between atoms: _113  and  _114
REMARK   46  A    between atoms: _113  and  _116
REMARK   47  A    between atoms: _116  and  _117
REMARK   48  A    between atoms: _122  and  _124
REMARK   49  A    between atoms: _124  and  _125
REMARK   50  A    between atoms: _127  and  _129
REMARK   51  A    between atoms: _129  and  _130
REMARK   52  A    between atoms: _132  and  _134
REMARK   53  A    between atoms: _134  and  _135
REMARK   54  A    between atoms: _134  and  _137
REMARK   55  A    between atoms: _137  and  _138
REMARK   56  A    between atoms: _141  and  _143
REMARK   57  A    between atoms: _143  and  _144
REMARK   58  A    between atoms: _143  and  _146
REMARK   59  A    between atoms: _146  and  _147
REMARK   60  A    between atoms: _147  and  _148
REMARK   61  A    between atoms: _151  and  _153
REMARK   62  A    between atoms: _153  and  _154
REMARK   63  A    between atoms: _153  and  _156
REMARK   64  A    between atoms: _156  and  _157
REMARK   65  A    between atoms: _160  and  _162
REMARK   66  A    between atoms: _162  and  _163
REMARK   67  A    between atoms: _162  and  _165
REMARK   68  A    between atoms: _165  and  _166
REMARK   69  A    between atoms: _176  and  _178
REMARK   70  A    between atoms: _178  and  _179
REMARK   71  A    between atoms: _178  and  _181
REMARK   72  A    between atoms: _181  and  _182
REMARK   73  A    between atoms: _185  and  _187
REMARK   74  A    between atoms: _187  and  _188
REMARK   75  A    between atoms: _187  and  _190
REMARK   76  A    between atoms: _190  and  _191
REMARK   77  A    between atoms: _191  and  _192
REMARK   78  A    between atoms: _197  and  _199
REMARK   79  A    between atoms: _199  and  _200
REMARK   80  A    between atoms: _199  and  _202
REMARK   81  A    between atoms: _205  and  _207
REMARK   82  A    between atoms: _207  and  _208
REMARK   83  A    between atoms: _207  and  _210
REMARK   84  A    between atoms: _210  and  _211
REMARK   85  A    between atoms: _221  and  _223
REMARK   86  A    between atoms: _223  and  _224
REMARK   87  A    between atoms: _223  and  _226
REMARK   88  A    between atoms: _226  and  _227
REMARK   89  A    between atoms: _230  and  _232
REMARK   90  A    between atoms: _232  and  _233
REMARK   91  A    between atoms: _232  and  _235
REMARK   92  A    between atoms: _235  and  _236
REMARK   93  A    between atoms: _239  and  _241
REMARK   94  A    between atoms: _241  and  _242
REMARK   95  A    between atoms: _241  and  _244
REMARK   96  A    between atoms: _244  and  _245
REMARK   97  A    between atoms: _247  and  _249
REMARK   98  A    between atoms: _249  and  _250
REMARK   99  A    between atoms: _249  and  _252
REMARK  100  A    between atoms: _252  and  _253
REMARK  101  A    between atoms: _258  and  _259
REMARK  102  A    between atoms: _261  and  _263
REMARK  103  A    between atoms: _263  and  _264
REMARK  104  A    between atoms: _263  and  _266
REMARK  105  A    between atoms: _266  and  _267
REMARK  106  A    between atoms: _272  and  _273
REMARK  107  A    between atoms: _275  and  _277
REMARK  108  A    between atoms: _277  and  _278
REMARK  109  A    between atoms: _277  and  _280
REMARK  110  A    between atoms: _280  and  _281
REMARK  111  A    between atoms: _284  and  _286
REMARK  112  A    between atoms: _286  and  _287
REMARK  113  A    between atoms: _286  and  _289
REMARK  114  A    between atoms: _289  and  _290
REMARK  115  A    between atoms: _300  and  _302
REMARK  116  A    between atoms: _302  and  _303
REMARK  117  A    between atoms: _302  and  _305
REMARK  118  A    between atoms: _305  and  _306
REMARK  119  A    between atoms: _311  and  _313
REMARK  120  A    between atoms: _313  and  _314
REMARK  121  A    between atoms: _313  and  _316
REMARK  122  A    between atoms: _316  and  _317
REMARK  123  A    between atoms: _327  and  _329
REMARK  124  A    between atoms: _329  and  _330
REMARK  125  A    between atoms: _329  and  _332
REMARK  126  A    between atoms: _334  and  _336
REMARK  127  A    between atoms: _336  and  _337
REMARK  128  A    between atoms: _336  and  _339
REMARK  129  A    between atoms: _339  and  _340
REMARK  130  A    between atoms: _342  and  _344
REMARK  131  A    between atoms: _344  and  _345
REMARK  132  A    between atoms: _348  and  _350
REMARK  133  A    between atoms: _350  and  _351
REMARK  134  A    between atoms: _350  and  _353
REMARK  135  A    between atoms: _353  and  _354
REMARK  136  A    between atoms: _364  and  _366
REMARK  137  A    between atoms: _366  and  _367
REMARK  138  A    between atoms: _366  and  _369
REMARK  139  A    between atoms: _369  and  _370
REMARK  140  A    between atoms: _370  and  _371
REMARK                            x       y       z     vdW  Elec       q    Type
REMARK                         _______ _______ _______ _____ _____    ______ ____
ROOT
ATOM      1  O   HOH     1     -31.440   6.447 182.028  0.00  0.00    +0.000 OA
ENDROOT
TORSDOF 0
REMARK  Name = ../refined-set-2016/3wmc/3wmc_pocket.pdb
REMARK  140 active torsions:
REMARK  status: ('A' for Active; 'I' for Inactive)
REMARK    1  A    between atoms: _1  and  _3
REMARK    2  A    between atoms: _3  and  _4
REMARK    3  A    between atoms: _3  and  _6
REMARK    4  A    between atoms: _6  and  _7
REMARK    5  A    between atoms: _10  and  _12
REMARK    6  A    between atoms: _12  and  _13
REMARK    7  A    between atoms: _12  and  _15
REMARK    8  A    between atoms: _15  and  _16
REMARK    9  A    between atoms: _16  and  _17
REMARK   10  A    between atoms: _17  and  _18
REMARK   11  A    between atoms: _27  and  _29
REMARK   12  A    between atoms: _29  and  _30
REMARK   13  A    between atoms: _29  and  _32
REMARK   14  A    between atoms: _32  and  _33
REMARK   15  A    between atoms: _38  and  _40
REMARK   16  A    between atoms: _40  and  _41
REMARK   17  A    between atoms: _40  and  _43
REMARK   18  A    between atoms: _43  and  _44
REMARK   19  A    between atoms: _47  and  _49
REMARK   20  A    between atoms: _49  and  _50
REMARK   21  A    between atoms: _49  and  _52
REMARK   22  A    between atoms: _52  and  _53
REMARK   23  A    between atoms: _53  and  _54
REMARK   24  A    between atoms: _57  and  _59
REMARK   25  A    between atoms: _59  and  _60
REMARK   26  A    between atoms: _59  and  _62
REMARK   27  A    between atoms: _62  and  _63
REMARK   28  A    between atoms: _66  and  _68
REMARK   29  A    between atoms: _68  and  _69
REMARK   30  A    between atoms: _68  and  _71
REMARK   31  A    between atoms: _71  and  _72
REMARK   32  A    between atoms: _77  and  _79
REMARK   33  A    between atoms: _79  and  _80
REMARK   34  A    between atoms: _79  and  _82
REMARK   35  A    between atoms: _82  and  _83
REMARK   36  A    between atoms: _93  and  _95
REMARK   37  A    between atoms: _95  and  _96
REMARK   38  A    between atoms: _95  and  _98
REMARK   39  A    between atoms: _101  and  _103
REMARK   40  A    between atoms: _103  and  _104
REMARK   41  A    between atoms: _103  and  _106
REMARK   42  A    between atoms: _106  and  _107
REMARK   43  A    between atoms: _107  and  _108
REMARK   44  A    between atoms: _111  and  _113
REMARK   45  A    between atoms: _113  and  _114
REMARK   46  A    between atoms: _113  and  _116
REMARK   47  A    between atoms: _116  and  _117
REMARK   48  A    between atoms: _122  and  _124
REMARK   49  A    between atoms: _124  and  _125
REMARK   50  A    between atoms: _127  and  _129
REMARK   51  A    between atoms: _129  and  _130
REMARK   52  A    between atoms: _132  and  _134
REMARK   53  A    between atoms: _134  and  _135
REMARK   54  A    between atoms: _134  and  _137
REMARK   55  A    between atoms: _137  and  _138
REMARK   56  A    between atoms: _141  and  _143
REMARK   57  A    between atoms: _143  and  _144
REMARK   58  A    between atoms: _143  and  _146
REMARK   59  A    between atoms: _146  and  _147
REMARK   60  A    between atoms: _147  and  _148
REMARK   61  A    between atoms: _151  and  _153
REMARK   62  A    between atoms: _153  and  _154
REMARK   63  A    between atoms: _153  and  _156
REMARK   64  A    between atoms: _156  and  _157
REMARK   65  A    between atoms: _160  and  _162
REMARK   66  A    between atoms: _162  and  _163
REMARK   67  A    between atoms: _162  and  _165
REMARK   68  A    between atoms: _165  and  _166
REMARK   69  A    between atoms: _176  and  _178
REMARK   70  A    between atoms: _178  and  _179
REMARK   71  A    between atoms: _178  and  _181
REMARK   72  A    between atoms: _181  and  _182
REMARK   73  A    between atoms: _185  and  _187
REMARK   74  A    between atoms: _187  and  _188
REMARK   75  A    between atoms: _187  and  _190
REMARK   76  A    between atoms: _190  and  _191
REMARK   77  A    between atoms: _191  and  _192
REMARK   78  A    between atoms: _197  and  _199
REMARK   79  A    between atoms: _199  and  _200
REMARK   80  A    between atoms: _199  and  _202
REMARK   81  A    between atoms: _205  and  _207
REMARK   82  A    between atoms: _207  and  _208
REMARK   83  A    between atoms: _207  and  _210
REMARK   84  A    between atoms: _210  and  _211
REMARK   85  A    between atoms: _221  and  _223
REMARK   86  A    between atoms: _223  and  _224
REMARK   87  A    between atoms: _223  and  _226
REMARK   88  A    between atoms: _226  and  _227
REMARK   89  A    between atoms: _230  and  _232
REMARK   90  A    between atoms: _232  and  _233
REMARK   91  A    between atoms: _232  and  _235
REMARK   92  A    between atoms: _235  and  _236
REMARK   93  A    between atoms: _239  and  _241
REMARK   94  A    between atoms: _241  and  _242
REMARK   95  A    between atoms: _241  and  _244
REMARK   96  A    between atoms: _244  and  _245
REMARK   97  A    between atoms: _247  and  _249
REMARK   98  A    between atoms: _249  and  _250
REMARK   99  A    between atoms: _249  and  _252
REMARK  100  A    between atoms: _252  and  _253
REMARK  101  A    between atoms: _258  and  _259
REMARK  102  A    between atoms: _261  and  _263
REMARK  103  A    between atoms: _263  and  _264
REMARK  104  A    between atoms: _263  and  _266
REMARK  105  A    between atoms: _266  and  _267
REMARK  106  A    between atoms: _272  and  _273
REMARK  107  A    between atoms: _275  and  _277
REMARK  108  A    between atoms: _277  and  _278
REMARK  109  A    between atoms: _277  and  _280
REMARK  110  A    between atoms: _280  and  _281
REMARK  111  A    between atoms: _284  and  _286
REMARK  112  A    between atoms: _286  and  _287
REMARK  113  A    between atoms: _286  and  _289
REMARK  114  A    between atoms: _289  and  _290
REMARK  115  A    between atoms: _300  and  _302
REMARK  116  A    between atoms: _302  and  _303
REMARK  117  A    between atoms: _302  and  _305
REMARK  118  A    between atoms: _305  and  _306
REMARK  119  A    between atoms: _311  and  _313
REMARK  120  A    between atoms: _313  and  _314
REMARK  121  A    between atoms: _313  and  _316
REMARK  122  A    between atoms: _316  and  _317
REMARK  123  A    between atoms: _327  and  _329
REMARK  124  A    between atoms: _329  and  _330
REMARK  125  A    between atoms: _329  and  _332
REMARK  126  A    between atoms: _334  and  _336
REMARK  127  A    between atoms: _336  and  _337
REMARK  128  A    between atoms: _336  and  _339
REMARK  129  A    between atoms: _339  and  _340
REMARK  130  A    between atoms: _342  and  _344
REMARK  131  A    between atoms: _344  and  _345
REMARK  132  A    between atoms: _348  and  _350
REMARK  133  A    between atoms: _350  and  _351
REMARK  134  A    between atoms: _350  and  _353
REMARK  135  A    between atoms: _353  and  _354
REMARK  136  A    between atoms: _364  and  _366
REMARK  137  A    between atoms: _366  and  _367
REMARK  138  A    between atoms: _366  and  _369
REMARK  139  A    between atoms: _369  and  _370
REMARK  140  A    between atoms: _370  and  _371
REMARK                            x       y       z     vdW  Elec       q    Type
REMARK                         _______ _______ _______ _____ _____    ______ ____
ROOT
ATOM      1  O   HOH     1     -33.663   4.440 182.288  0.00  0.00    +0.000 OA
ENDROOT
TORSDOF 0
REMARK  Name = ../refined-set-2016/3wmc/3wmc_pocket.pdb
REMARK  140 active torsions:
REMARK  status: ('A' for Active; 'I' for Inactive)
REMARK    1  A    between atoms: _1  and  _3
REMARK    2  A    between atoms: _3  and  _4
REMARK    3  A    between atoms: _3  and  _6
REMARK    4  A    between atoms: _6  and  _7
REMARK    5  A    between atoms: _10  and  _12
REMARK    6  A    between atoms: _12  and  _13
REMARK    7  A    between atoms: _12  and  _15
REMARK    8  A    between atoms: _15  and  _16
REMARK    9  A    between atoms: _16  and  _17
REMARK   10  A    between atoms: _17  and  _18
REMARK   11  A    between atoms: _27  and  _29
REMARK   12  A    between atoms: _29  and  _30
REMARK   13  A    between atoms: _29  and  _32
REMARK   14  A    between atoms: _32  and  _33
REMARK   15  A    between atoms: _38  and  _40
REMARK   16  A    between atoms: _40  and  _41
REMARK   17  A    between atoms: _40  and  _43
REMARK   18  A    between atoms: _43  and  _44
REMARK   19  A    between atoms: _47  and  _49
REMARK   20  A    between atoms: _49  and  _50
REMARK   21  A    between atoms: _49  and  _52
REMARK   22  A    between atoms: _52  and  _53
REMARK   23  A    between atoms: _53  and  _54
REMARK   24  A    between atoms: _57  and  _59
REMARK   25  A    between atoms: _59  and  _60
REMARK   26  A    between atoms: _59  and  _62
REMARK   27  A    between atoms: _62  and  _63
REMARK   28  A    between atoms: _66  and  _68
REMARK   29  A    between atoms: _68  and  _69
REMARK   30  A    between atoms: _68  and  _71
REMARK   31  A    between atoms: _71  and  _72
REMARK   32  A    between atoms: _77  and  _79
REMARK   33  A    between atoms: _79  and  _80
REMARK   34  A    between atoms: _79  and  _82
REMARK   35  A    between atoms: _82  and  _83
REMARK   36  A    between atoms: _93  and  _95
REMARK   37  A    between atoms: _95  and  _96
REMARK   38  A    between atoms: _95  and  _98
REMARK   39  A    between atoms: _101  and  _103
REMARK   40  A    between atoms: _103  and  _104
REMARK   41  A    between atoms: _103  and  _106
REMARK   42  A    between atoms: _106  and  _107
REMARK   43  A    between atoms: _107  and  _108
REMARK   44  A    between atoms: _111  and  _113
REMARK   45  A    between atoms: _113  and  _114
REMARK   46  A    between atoms: _113  and  _116
REMARK   47  A    between atoms: _116  and  _117
REMARK   48  A    between atoms: _122  and  _124
REMARK   49  A    between atoms: _124  and  _125
REMARK   50  A    between atoms: _127  and  _129
REMARK   51  A    between atoms: _129  and  _130
REMARK   52  A    between atoms: _132  and  _134
REMARK   53  A    between atoms: _134  and  _135
REMARK   54  A    between atoms: _134  and  _137
REMARK   55  A    between atoms: _137  and  _138
REMARK   56  A    between atoms: _141  and  _143
REMARK   57  A    between atoms: _143  and  _144
REMARK   58  A    between atoms: _143  and  _146
REMARK   59  A    between atoms: _146  and  _147
REMARK   60  A    between atoms: _147  and  _148
REMARK   61  A    between atoms: _151  and  _153
REMARK   62  A    between atoms: _153  and  _154
REMARK   63  A    between atoms: _153  and  _156
REMARK   64  A    between atoms: _156  and  _157
REMARK   65  A    between atoms: _160  and  _162
REMARK   66  A    between atoms: _162  and  _163
REMARK   67  A    between atoms: _162  and  _165
REMARK   68  A    between atoms: _165  and  _166
REMARK   69  A    between atoms: _176  and  _178
REMARK   70  A    between atoms: _178  and  _179
REMARK   71  A    between atoms: _178  and  _181
REMARK   72  A    between atoms: _181  and  _182
REMARK   73  A    between atoms: _185  and  _187
REMARK   74  A    between atoms: _187  and  _188
REMARK   75  A    between atoms: _187  and  _190
REMARK   76  A    between atoms: _190  and  _191
REMARK   77  A    between atoms: _191  and  _192
REMARK   78  A    between atoms: _197  and  _199
REMARK   79  A    between atoms: _199  and  _200
REMARK   80  A    between atoms: _199  and  _202
REMARK   81  A    between atoms: _205  and  _207
REMARK   82  A    between atoms: _207  and  _208
REMARK   83  A    between atoms: _207  and  _210
REMARK   84  A    between atoms: _210  and  _211
REMARK   85  A    between atoms: _221  and  _223
REMARK   86  A    between atoms: _223  and  _224
REMARK   87  A    between atoms: _223  and  _226
REMARK   88  A    between atoms: _226  and  _227
REMARK   89  A    between atoms: _230  and  _232
REMARK   90  A    between atoms: _232  and  _233
REMARK   91  A    between atoms: _232  and  _235
REMARK   92  A    between atoms: _235  and  _236
REMARK   93  A    between atoms: _239  and  _241
REMARK   94  A    between atoms: _241  and  _242
REMARK   95  A    between atoms: _241  and  _244
REMARK   96  A    between atoms: _244  and  _245
REMARK   97  A    between atoms: _247  and  _249
REMARK   98  A    between atoms: _249  and  _250
REMARK   99  A    between atoms: _249  and  _252
REMARK  100  A    between atoms: _252  and  _253
REMARK  101  A    between atoms: _258  and  _259
REMARK  102  A    between atoms: _261  and  _263
REMARK  103  A    between atoms: _263  and  _264
REMARK  104  A    between atoms: _263  and  _266
REMARK  105  A    between atoms: _266  and  _267
REMARK  106  A    between atoms: _272  and  _273
REMARK  107  A    between atoms: _275  and  _277
REMARK  108  A    between atoms: _277  and  _278
REMARK  109  A    between atoms: _277  and  _280
REMARK  110  A    between atoms: _280  and  _281
REMARK  111  A    between atoms: _284  and  _286
REMARK  112  A    between atoms: _286  and  _287
REMARK  113  A    between atoms: _286  and  _289
REMARK  114  A    between atoms: _289  and  _290
REMARK  115  A    between atoms: _300  and  _302
REMARK  116  A    between atoms: _302  and  _303
REMARK  117  A    between atoms: _302  and  _305
REMARK  118  A    between atoms: _305  and  _306
REMARK  119  A    between atoms: _311  and  _313
REMARK  120  A    between atoms: _313  and  _314
REMARK  121  A    between atoms: _313  and  _316
REMARK  122  A    between atoms: _316  and  _317
REMARK  123  A    between atoms: _327  and  _329
REMARK  124  A    between atoms: _329  and  _330
REMARK  125  A    between atoms: _329  and  _332
REMARK  126  A    between atoms: _334  and  _336
REMARK  127  A    between atoms: _336  and  _337
REMARK  128  A    between atoms: _336  and  _339
REMARK  129  A    between atoms: _339  and  _340
REMARK  130  A    between atoms: _342  and  _344
REMARK  131  A    between atoms: _344  and  _345
REMARK  132  A    between atoms: _348  and  _350
REMARK  133  A    between atoms: _350  and  _351
REMARK  134  A    between atoms: _350  and  _353
REMARK  135  A    between atoms: _353  and  _354
REMARK  136  A    between atoms: _364  and  _366
REMARK  137  A    between atoms: _366  and  _367
REMARK  138  A    between atoms: _366  and  _369
REMARK  139  A    between atoms: _369  and  _370
REMARK  140  A    between atoms: _370  and  _371
REMARK                            x       y       z     vdW  Elec       q    Type
REMARK                         _______ _______ _______ _____ _____    ______ ____
ROOT
ATOM      1  O   HOH     1     -33.435  -0.029 182.050  0.00  0.00    +0.000 OA
ENDROOT
TORSDOF 0
