REMARK  Name = ../refined-set-2016/4b33/4b33_pocket.pdb
REMARK  109 active torsions:
REMARK  status: ('A' for Active; 'I' for Inactive)
REMARK    1  A    between atoms: _1  and  _3
REMARK    2  A    between atoms: _3  and  _4
REMARK    3  A    between atoms: _3  and  _6
REMARK    4  A    between atoms: _9  and  _11
REMARK    5  A    between atoms: _11  and  _12
REMARK    6  A    between atoms: _11  and  _14
REMARK    7  A    between atoms: _14  and  _15
REMARK    8  A    between atoms: _15  and  _16
REMARK    9  A    between atoms: _18  and  _20
REMARK   10  A    between atoms: _20  and  _21
REMARK   11  A    between atoms: _20  and  _23
REMARK   12  A    between atoms: _23  and  _24
REMARK   13  A    between atoms: _34  and  _36
REMARK   14  A    between atoms: _36  and  _37
REMARK   15  A    between atoms: _36  and  _39
REMARK   16  A    between atoms: _39  and  _40
REMARK   17  A    between atoms: _43  and  _45
REMARK   18  A    between atoms: _45  and  _46
REMARK   19  A    between atoms: _45  and  _48
REMARK   20  A    between atoms: _48  and  _49
REMARK   21  A    between atoms: _52  and  _54
REMARK   22  A    between atoms: _54  and  _55
REMARK   23  A    between atoms: _54  and  _57
REMARK   24  A    between atoms: _57  and  _58
REMARK   25  A    between atoms: _61  and  _63
REMARK   26  A    between atoms: _63  and  _64
REMARK   27  A    between atoms: _67  and  _69
REMARK   28  A    between atoms: _69  and  _70
REMARK   29  A    between atoms: _69  and  _72
REMARK   30  A    between atoms: _72  and  _73
REMARK   31  A    between atoms: _78  and  _79
REMARK   32  A    between atoms: _81  and  _83
REMARK   33  A    between atoms: _83  and  _84
REMARK   34  A    between atoms: _87  and  _89
REMARK   35  A    between atoms: _89  and  _90
REMARK   36  A    between atoms: _89  and  _92
REMARK   37  A    between atoms: _92  and  _93
REMARK   38  A    between atoms: _93  and  _94
REMARK   39  A    between atoms: _94  and  _95
REMARK   40  A    between atoms: _104  and  _106
REMARK   41  A    between atoms: _106  and  _107
REMARK   42  A    between atoms: _106  and  _109
REMARK   43  A    between atoms: _109  and  _110
REMARK   44  A    between atoms: _115  and  _117
REMARK   45  A    between atoms: _117  and  _118
REMARK   46  A    between atoms: _117  and  _120
REMARK   47  A    between atoms: _120  and  _121
REMARK   48  A    between atoms: _121  and  _122
REMARK   49  A    between atoms: _127  and  _129
REMARK   50  A    between atoms: _129  and  _130
REMARK   51  A    between atoms: _129  and  _132
REMARK   52  A    between atoms: _132  and  _133
REMARK   53  A    between atoms: _133  and  _134
REMARK   54  A    between atoms: _136  and  _138
REMARK   55  A    between atoms: _138  and  _139
REMARK   56  A    between atoms: _138  and  _141
REMARK   57  A    between atoms: _141  and  _142
REMARK   58  A    between atoms: _145  and  _147
REMARK   59  A    between atoms: _147  and  _148
REMARK   60  A    between atoms: _147  and  _150
REMARK   61  A    between atoms: _150  and  _151
REMARK   62  A    between atoms: _154  and  _156
REMARK   63  A    between atoms: _156  and  _157
REMARK   64  A    between atoms: _156  and  _159
REMARK   65  A    between atoms: _162  and  _164
REMARK   66  A    between atoms: _164  and  _165
REMARK   67  A    between atoms: _164  and  _167
REMARK   68  A    between atoms: _167  and  _168
REMARK   69  A    between atoms: _168  and  _169
REMARK   70  A    between atoms: _174  and  _176
REMARK   71  A    between atoms: _176  and  _177
REMARK   72  A    between atoms: _176  and  _179
REMARK   73  A    between atoms: _179  and  _180
REMARK   74  A    between atoms: _180  and  _181
REMARK   75  A    between atoms: _186  and  _188
REMARK   76  A    between atoms: _188  and  _189
REMARK   77  A    between atoms: _192  and  _194
REMARK   78  A    between atoms: _194  and  _195
REMARK   79  A    between atoms: _194  and  _197
REMARK   80  A    between atoms: _197  and  _198
REMARK   81  A    between atoms: _198  and  _199
REMARK   82  A    between atoms: _202  and  _204
REMARK   83  A    between atoms: _204  and  _205
REMARK   84  A    between atoms: _204  and  _207
REMARK   85  A    between atoms: _207  and  _208
REMARK   86  A    between atoms: _211  and  _213
REMARK   87  A    between atoms: _213  and  _214
REMARK   88  A    between atoms: _213  and  _216
REMARK   89  A    between atoms: _216  and  _217
REMARK   90  A    between atoms: _217  and  _218
REMARK   91  A    between atoms: _220  and  _222
REMARK   92  A    between atoms: _222  and  _223
REMARK   93  A    between atoms: _222  and  _225
REMARK   94  A    between atoms: _225  and  _226
REMARK   95  A    between atoms: _229  and  _231
REMARK   96  A    between atoms: _231  and  _232
REMARK   97  A    between atoms: _231  and  _234
REMARK   98  A    between atoms: _234  and  _235
REMARK   99  A    between atoms: _238  and  _240
REMARK  100  A    between atoms: _240  and  _241
REMARK  101  A    between atoms: _240  and  _243
REMARK  102  A    between atoms: _243  and  _244
REMARK  103  A    between atoms: _247  and  _249
REMARK  104  A    between atoms: _249  and  _250
REMARK  105  A    between atoms: _249  and  _252
REMARK  106  A    between atoms: _255  and  _257
REMARK  107  A    between atoms: _257  and  _258
REMARK  108  A    between atoms: _257  and  _260
REMARK  109  A    between atoms: _260  and  _261
REMARK                            x       y       z     vdW  Elec       q    Type
REMARK                         _______ _______ _______ _____ _____    ______ ____
ROOT
ATOM      1  CA  TRP A   3      16.380   1.724   0.347  0.00  0.00    +0.153 C 
ENDROOT
BRANCH   1   3
ATOM      2  C   MET A   2      15.547   2.226  -1.902  0.00  0.00    +0.241 C 
ATOM      3  N   TRP A   3      16.561   2.083  -1.050  0.00  0.00    -0.297 N 
ATOM      4  H   TRP A   3      17.528   2.235  -1.401  0.00  0.00    +0.150 HD
ATOM      5  O   MET A   2      14.357   2.238  -1.556  0.00  0.00    -0.273 OA
BRANCH   2   6
ATOM      6  CA  MET A   2      15.913   2.392  -3.369  0.00  0.00    +0.149 C 
BRANCH   6   8
ATOM      7  C   VAL A   1      15.511   0.577  -4.937  0.00  0.00    +0.238 C 
ATOM      8  N   MET A   2      15.037   1.496  -4.101  0.00  0.00    -0.297 N 
ATOM      9  H   MET A   2      14.009   1.575  -3.968  0.00  0.00    +0.150 HD
ATOM     10  O   VAL A   1      16.692   0.538  -5.294  0.00  0.00    -0.274 OA
BRANCH   7  11
ATOM     11  CA  VAL A   1      14.511  -0.463  -5.421  0.00  0.00    +0.145 C 
BRANCH  11  12
ATOM     12  CB  VAL A   1      14.610  -1.664  -4.478  0.00  0.00    +0.025 C 
ATOM     13  CG2 VAL A   1      14.185  -1.277  -3.059  0.00  0.00    +0.002 C 
ATOM     14  CG1 VAL A   1      13.778  -2.811  -5.018  0.00  0.00    +0.002 C 
ENDBRANCH  11  12
BRANCH  11  15
ATOM     15  N   VAL A   1      14.803  -0.888  -6.780  0.00  0.00    -0.238 NA
ATOM     16  H   VAL A   1      15.760  -1.232  -6.997  0.00  0.00    +0.142 HD
ENDBRANCH  11  15
ENDBRANCH   7  11
ENDBRANCH   6   8
BRANCH   6  17
ATOM     17  CB  MET A   2      15.751   3.844  -3.839  0.00  0.00    +0.041 C 
BRANCH  17  18
ATOM     18  CG  MET A   2      16.078   4.018  -5.340  0.00  0.00    +0.060 C 
BRANCH  18  19
ATOM     19  SD  MET A   2      16.133   5.740  -5.872  0.00  0.00    -0.139 S 
ATOM     20  CE  MET A   2      17.627   6.290  -5.050  0.00  0.00    +0.069 C 
ENDBRANCH  18  19
ENDBRANCH  17  18
ENDBRANCH   6  17
ENDBRANCH   2   6
ENDBRANCH   1   3
BRANCH   1  21
ATOM     21  C   TRP A   3      17.155   2.664   1.248  0.00  0.00    +0.241 C 
ATOM     22  N   ILE A   4      16.444   3.372   2.117  0.00  0.00    -0.297 N 
ATOM     23  H   ILE A   4      15.408   3.287   2.107  0.00  0.00    +0.150 HD
ATOM     24  O   TRP A   3      18.385   2.748   1.159  0.00  0.00    -0.273 OA
BRANCH  22  25
ATOM     25  CA  ILE A   4      17.067   4.262   3.081  0.00  0.00    +0.149 C 
BRANCH  25  26
ATOM     26  C   ILE A   4      16.946   3.608   4.448  0.00  0.00    +0.241 C 
ATOM     27  N   ASP A   5      18.083   3.380   5.106  0.00  0.00    -0.298 N 
ATOM     28  H   ASP A   5      18.959   3.791   4.723  0.00  0.00    +0.150 HD
ATOM     29  O   ILE A   4      15.838   3.333   4.895  0.00  0.00    -0.273 OA
BRANCH  27  30
ATOM     30  CA  ASP A   5      18.176   2.589   6.332  0.00  0.00    +0.148 C 
BRANCH  30  31
ATOM     31  C   ASP A   5      18.638   3.507   7.456  0.00  0.00    +0.227 C 
ATOM     32  O   ASP A   5      19.705   4.114   7.362  0.00  0.00    -0.286 OA
ENDBRANCH  30  31
BRANCH  30  33
ATOM     33  CB  ASP A   5      19.190   1.466   6.054  0.00  0.00    +0.142 C 
BRANCH  33  34
ATOM     34  CG  ASP A   5      19.376   0.501   7.197  0.00  0.00    +0.367 C 
ATOM     35  OD2 ASP A   5      18.661   0.567   8.210  0.00  0.00    -0.246 OA
ATOM     36  OD1 ASP A   5      20.274  -0.363   7.064  0.00  0.00    -0.246 OA
ENDBRANCH  33  34
ENDBRANCH  30  33
ENDBRANCH  27  30
ENDBRANCH  25  26
BRANCH  25  37
ATOM     37  CB  ILE A   4      16.384   5.651   3.116  0.00  0.00    +0.027 C 
ATOM     38  CG2 ILE A   4      16.934   6.493   4.275  0.00  0.00    +0.002 C 
BRANCH  37  39
ATOM     39  CG1 ILE A   4      16.600   6.395   1.790  0.00  0.00    +0.002 C 
ATOM     40  CD1 ILE A   4      15.794   7.691   1.674  0.00  0.00    +0.000 C 
ENDBRANCH  37  39
ENDBRANCH  25  37
ENDBRANCH  22  25
ENDBRANCH   1  21
BRANCH   1  41
ATOM     41  CB  TRP A   3      16.881   0.294   0.571  0.00  0.00    +0.057 C 
BRANCH  41  42
ATOM     42  CG  TRP A   3      16.556  -0.257   1.909  0.00  0.00    -0.002 A 
ATOM     43  CD1 TRP A   3      16.843   0.294   3.123  0.00  0.00    +0.068 A 
ATOM     44  NE1 TRP A   3      16.373  -0.525   4.138  0.00  0.00    -0.352 N 
ATOM     45  HE1 TRP A   3      16.433  -0.324   5.157  0.00  0.00    +0.166 HD
ATOM     46  CE2 TRP A   3      15.817  -1.641   3.576  0.00  0.00    +0.056 A 
ATOM     47  CZ2 TRP A   3      15.217  -2.752   4.177  0.00  0.00    +0.017 A 
ATOM     48  CH2 TRP A   3      14.720  -3.722   3.357  0.00  0.00    +0.001 A 
ATOM     49  CZ3 TRP A   3      14.816  -3.620   1.960  0.00  0.00    +0.000 A 
ATOM     50  CE3 TRP A   3      15.403  -2.517   1.360  0.00  0.00    +0.001 A 
ATOM     51  CD2 TRP A   3      15.912  -1.506   2.172  0.00  0.00    +0.013 A 
ENDBRANCH  41  42
ENDBRANCH   1  41
TORSDOF 20
REMARK  Name = ../refined-set-2016/4b33/4b33_pocket.pdb
REMARK  109 active torsions:
REMARK  status: ('A' for Active; 'I' for Inactive)
REMARK    1  A    between atoms: _1  and  _3
REMARK    2  A    between atoms: _3  and  _4
REMARK    3  A    between atoms: _3  and  _6
REMARK    4  A    between atoms: _9  and  _11
REMARK    5  A    between atoms: _11  and  _12
REMARK    6  A    between atoms: _11  and  _14
REMARK    7  A    between atoms: _14  and  _15
REMARK    8  A    between atoms: _15  and  _16
REMARK    9  A    between atoms: _18  and  _20
REMARK   10  A    between atoms: _20  and  _21
REMARK   11  A    between atoms: _20  and  _23
REMARK   12  A    between atoms: _23  and  _24
REMARK   13  A    between atoms: _34  and  _36
REMARK   14  A    between atoms: _36  and  _37
REMARK   15  A    between atoms: _36  and  _39
REMARK   16  A    between atoms: _39  and  _40
REMARK   17  A    between atoms: _43  and  _45
REMARK   18  A    between atoms: _45  and  _46
REMARK   19  A    between atoms: _45  and  _48
REMARK   20  A    between atoms: _48  and  _49
REMARK   21  A    between atoms: _52  and  _54
REMARK   22  A    between atoms: _54  and  _55
REMARK   23  A    between atoms: _54  and  _57
REMARK   24  A    between atoms: _57  and  _58
REMARK   25  A    between atoms: _61  and  _63
REMARK   26  A    between atoms: _63  and  _64
REMARK   27  A    between atoms: _67  and  _69
REMARK   28  A    between atoms: _69  and  _70
REMARK   29  A    between atoms: _69  and  _72
REMARK   30  A    between atoms: _72  and  _73
REMARK   31  A    between atoms: _78  and  _79
REMARK   32  A    between atoms: _81  and  _83
REMARK   33  A    between atoms: _83  and  _84
REMARK   34  A    between atoms: _87  and  _89
REMARK   35  A    between atoms: _89  and  _90
REMARK   36  A    between atoms: _89  and  _92
REMARK   37  A    between atoms: _92  and  _93
REMARK   38  A    between atoms: _93  and  _94
REMARK   39  A    between atoms: _94  and  _95
REMARK   40  A    between atoms: _104  and  _106
REMARK   41  A    between atoms: _106  and  _107
REMARK   42  A    between atoms: _106  and  _109
REMARK   43  A    between atoms: _109  and  _110
REMARK   44  A    between atoms: _115  and  _117
REMARK   45  A    between atoms: _117  and  _118
REMARK   46  A    between atoms: _117  and  _120
REMARK   47  A    between atoms: _120  and  _121
REMARK   48  A    between atoms: _121  and  _122
REMARK   49  A    between atoms: _127  and  _129
REMARK   50  A    between atoms: _129  and  _130
REMARK   51  A    between atoms: _129  and  _132
REMARK   52  A    between atoms: _132  and  _133
REMARK   53  A    between atoms: _133  and  _134
REMARK   54  A    between atoms: _136  and  _138
REMARK   55  A    between atoms: _138  and  _139
REMARK   56  A    between atoms: _138  and  _141
REMARK   57  A    between atoms: _141  and  _142
REMARK   58  A    between atoms: _145  and  _147
REMARK   59  A    between atoms: _147  and  _148
REMARK   60  A    between atoms: _147  and  _150
REMARK   61  A    between atoms: _150  and  _151
REMARK   62  A    between atoms: _154  and  _156
REMARK   63  A    between atoms: _156  and  _157
REMARK   64  A    between atoms: _156  and  _159
REMARK   65  A    between atoms: _162  and  _164
REMARK   66  A    between atoms: _164  and  _165
REMARK   67  A    between atoms: _164  and  _167
REMARK   68  A    between atoms: _167  and  _168
REMARK   69  A    between atoms: _168  and  _169
REMARK   70  A    between atoms: _174  and  _176
REMARK   71  A    between atoms: _176  and  _177
REMARK   72  A    between atoms: _176  and  _179
REMARK   73  A    between atoms: _179  and  _180
REMARK   74  A    between atoms: _180  and  _181
REMARK   75  A    between atoms: _186  and  _188
REMARK   76  A    between atoms: _188  and  _189
REMARK   77  A    between atoms: _192  and  _194
REMARK   78  A    between atoms: _194  and  _195
REMARK   79  A    between atoms: _194  and  _197
REMARK   80  A    between atoms: _197  and  _198
REMARK   81  A    between atoms: _198  and  _199
REMARK   82  A    between atoms: _202  and  _204
REMARK   83  A    between atoms: _204  and  _205
REMARK   84  A    between atoms: _204  and  _207
REMARK   85  A    between atoms: _207  and  _208
REMARK   86  A    between atoms: _211  and  _213
REMARK   87  A    between atoms: _213  and  _214
REMARK   88  A    between atoms: _213  and  _216
REMARK   89  A    between atoms: _216  and  _217
REMARK   90  A    between atoms: _217  and  _218
REMARK   91  A    between atoms: _220  and  _222
REMARK   92  A    between atoms: _222  and  _223
REMARK   93  A    between atoms: _222  and  _225
REMARK   94  A    between atoms: _225  and  _226
REMARK   95  A    between atoms: _229  and  _231
REMARK   96  A    between atoms: _231  and  _232
REMARK   97  A    between atoms: _231  and  _234
REMARK   98  A    between atoms: _234  and  _235
REMARK   99  A    between atoms: _238  and  _240
REMARK  100  A    between atoms: _240  and  _241
REMARK  101  A    between atoms: _240  and  _243
REMARK  102  A    between atoms: _243  and  _244
REMARK  103  A    between atoms: _247  and  _249
REMARK  104  A    between atoms: _249  and  _250
REMARK  105  A    between atoms: _249  and  _252
REMARK  106  A    between atoms: _255  and  _257
REMARK  107  A    between atoms: _257  and  _258
REMARK  108  A    between atoms: _257  and  _260
REMARK  109  A    between atoms: _260  and  _261
REMARK                            x       y       z     vdW  Elec       q    Type
REMARK                         _______ _______ _______ _____ _____    ______ ____
ROOT
ATOM      1  CA  TYR A   3      21.240   1.360  -0.610  0.00  0.00    +0.153 C 
ENDROOT
BRANCH   1   3
ATOM      2  C   ALA A   2      20.138   1.353  -2.791  0.00  0.00    +0.241 C 
ATOM      3  N   TYR A   3      21.237   1.221  -2.063  0.00  0.00    -0.297 N 
ATOM      4  H   TYR A   3      22.133   1.010  -2.546  0.00  0.00    +0.150 HD
ATOM      5  O   ALA A   2      19.064   1.693  -2.317  0.00  0.00    -0.273 OA
BRANCH   2   6
ATOM      6  CA  ALA A   2      20.265   1.051  -4.280  0.00  0.00    +0.149 C 
ATOM      7  CB  ALA A   2      19.930   2.262  -5.109  0.00  0.00    +0.031 C 
BRANCH   6  10
ATOM      8  C   ILE A   1      19.688  -1.305  -4.359  0.00  0.00    +0.238 C 
ATOM      9  O   ILE A   1      20.817  -1.651  -3.986  0.00  0.00    -0.274 OA
ATOM     10  N   ALA A   2      19.358  -0.040  -4.586  0.00  0.00    -0.297 N 
ATOM     11  H   ALA A   2      18.426   0.175  -4.994  0.00  0.00    +0.150 HD
BRANCH   8  12
ATOM     12  CA  ILE A   1      18.608  -2.349  -4.632  0.00  0.00    +0.145 C 
BRANCH  12  13
ATOM     13  N   ILE A   1      18.968  -3.104  -5.836  0.00  0.00    -0.238 NA
ATOM     14  H   ILE A   1      19.757  -3.780  -5.789  0.00  0.00    +0.142 HD
ENDBRANCH  12  13
BRANCH  12  15
ATOM     15  CB  ILE A   1      18.477  -3.262  -3.410  0.00  0.00    +0.025 C 
ATOM     16  CG2 ILE A   1      18.258  -2.418  -2.132  0.00  0.00    +0.002 C 
BRANCH  15  17
ATOM     17  CG1 ILE A   1      17.362  -4.293  -3.643  0.00  0.00    +0.002 C 
ATOM     18  CD1 ILE A   1      17.290  -5.410  -2.611  0.00  0.00    +0.000 C 
ENDBRANCH  15  17
ENDBRANCH  12  15
ENDBRANCH   8  12
ENDBRANCH   6  10
ENDBRANCH   2   6
ENDBRANCH   1   3
BRANCH   1  19
ATOM     19  C   TYR A   3      21.833   2.676  -0.114  0.00  0.00    +0.241 C 
ATOM     20  N   ALA A   4      21.173   3.300   0.854  0.00  0.00    -0.297 N 
ATOM     21  H   ALA A   4      20.236   2.951   1.139  0.00  0.00    +0.150 HD
ATOM     22  O   TYR A   3      22.884   3.127  -0.584  0.00  0.00    -0.273 OA
BRANCH  20  23
ATOM     23  CA  ALA A   4      21.735   4.464   1.525  0.00  0.00    +0.149 C 
ATOM     24  CB  ALA A   4      21.176   5.741   0.954  0.00  0.00    +0.031 C 
BRANCH  23  25
ATOM     25  C   ALA A   4      21.466   4.403   3.025  0.00  0.00    +0.241 C 
ATOM     26  N   ARG A   5      22.518   4.588   3.810  0.00  0.00    -0.298 N 
ATOM     27  H   ARG A   5      23.463   4.604   3.376  0.00  0.00    +0.150 HD
ATOM     28  O   ALA A   4      20.327   4.197   3.459  0.00  0.00    -0.273 OA
BRANCH  26  29
ATOM     29  CA  ARG A   5      22.415   4.768   5.239  0.00  0.00    +0.137 C 
BRANCH  29  30
ATOM     30  C   ARG A   5      22.084   6.231   5.516  0.00  0.00    +0.227 C 
ATOM     31  O   ARG A   5      22.686   7.141   4.925  0.00  0.00    -0.286 OA
ENDBRANCH  29  30
BRANCH  29  32
ATOM     32  CB  ARG A   5      23.754   4.384   5.888  0.00  0.00    +0.031 C 
BRANCH  32  33
ATOM     33  CG  ARG A   5      23.825   4.681   7.383  0.00  0.00    +0.045 C 
BRANCH  33  34
ATOM     34  CD  ARG A   5      23.029   3.675   8.199  0.00  0.00    +0.174 C 
BRANCH  34  35
ATOM     35  NE  ARG A   5      22.391   4.321   9.348  0.00  0.00    -0.265 N 
ATOM     36  CZ  ARG A   5      23.042   4.657  10.454  0.00  0.00    +0.342 C 
ATOM     37  NH2 ARG A   5      22.398   5.251  11.455  0.00  0.00    -0.292 N 
ATOM     38 HH21 ARG A   5      22.911   5.513  12.321  0.00  0.00    +0.255 HD
ATOM     39 HH22 ARG A   5      21.381   5.453  11.372  0.00  0.00    +0.255 HD
ATOM     40  NH1 ARG A   5      24.344   4.397  10.555  0.00  0.00    -0.292 N 
ATOM     41 HH11 ARG A   5      24.861   4.658  11.419  0.00  0.00    +0.255 HD
ATOM     42 HH12 ARG A   5      24.844   3.933   9.770  0.00  0.00    +0.255 HD
ATOM     43  HE  ARG A   5      21.373   4.527   9.294  0.00  0.00    +0.259 HD
ENDBRANCH  34  35
ENDBRANCH  33  34
ENDBRANCH  32  33
ENDBRANCH  29  32
ENDBRANCH  26  29
ENDBRANCH  23  25
ENDBRANCH  20  23
ENDBRANCH   1  19
BRANCH   1  44
ATOM     44  CB  TYR A   3      22.018   0.195  -0.001  0.00  0.00    +0.055 C 
BRANCH  44  45
ATOM     45  CG  TYR A   3      22.105   0.247   1.499  0.00  0.00    -0.020 A 
ATOM     46  CD2 TYR A   3      21.058  -0.216   2.284  0.00  0.00    -0.001 A 
ATOM     47  CE2 TYR A   3      21.128  -0.176   3.656  0.00  0.00    +0.036 A 
ATOM     48  CZ  TYR A   3      22.244   0.348   4.263  0.00  0.00    +0.134 A 
ATOM     49  CE1 TYR A   3      23.301   0.824   3.506  0.00  0.00    +0.036 A 
ATOM     50  CD1 TYR A   3      23.219   0.780   2.130  0.00  0.00    -0.001 A 
BRANCH  48  51
ATOM     51  OH  TYR A   3      22.303   0.399   5.632  0.00  0.00    -0.506 OA
ATOM     52  HH  TYR A   3      21.471   0.020   6.011  0.00  0.00    +0.292 HD
ENDBRANCH  48  51
ENDBRANCH  44  45
ENDBRANCH   1  44
TORSDOF 19
REMARK  Name = ../refined-set-2016/4b33/4b33_pocket.pdb
REMARK  109 active torsions:
REMARK  status: ('A' for Active; 'I' for Inactive)
REMARK    1  A    between atoms: _1  and  _3
REMARK    2  A    between atoms: _3  and  _4
REMARK    3  A    between atoms: _3  and  _6
REMARK    4  A    between atoms: _9  and  _11
REMARK    5  A    between atoms: _11  and  _12
REMARK    6  A    between atoms: _11  and  _14
REMARK    7  A    between atoms: _14  and  _15
REMARK    8  A    between atoms: _15  and  _16
REMARK    9  A    between atoms: _18  and  _20
REMARK   10  A    between atoms: _20  and  _21
REMARK   11  A    between atoms: _20  and  _23
REMARK   12  A    between atoms: _23  and  _24
REMARK   13  A    between atoms: _34  and  _36
REMARK   14  A    between atoms: _36  and  _37
REMARK   15  A    between atoms: _36  and  _39
REMARK   16  A    between atoms: _39  and  _40
REMARK   17  A    between atoms: _43  and  _45
REMARK   18  A    between atoms: _45  and  _46
REMARK   19  A    between atoms: _45  and  _48
REMARK   20  A    between atoms: _48  and  _49
REMARK   21  A    between atoms: _52  and  _54
REMARK   22  A    between atoms: _54  and  _55
REMARK   23  A    between atoms: _54  and  _57
REMARK   24  A    between atoms: _57  and  _58
REMARK   25  A    between atoms: _61  and  _63
REMARK   26  A    between atoms: _63  and  _64
REMARK   27  A    between atoms: _67  and  _69
REMARK   28  A    between atoms: _69  and  _70
REMARK   29  A    between atoms: _69  and  _72
REMARK   30  A    between atoms: _72  and  _73
REMARK   31  A    between atoms: _78  and  _79
REMARK   32  A    between atoms: _81  and  _83
REMARK   33  A    between atoms: _83  and  _84
REMARK   34  A    between atoms: _87  and  _89
REMARK   35  A    between atoms: _89  and  _90
REMARK   36  A    between atoms: _89  and  _92
REMARK   37  A    between atoms: _92  and  _93
REMARK   38  A    between atoms: _93  and  _94
REMARK   39  A    between atoms: _94  and  _95
REMARK   40  A    between atoms: _104  and  _106
REMARK   41  A    between atoms: _106  and  _107
REMARK   42  A    between atoms: _106  and  _109
REMARK   43  A    between atoms: _109  and  _110
REMARK   44  A    between atoms: _115  and  _117
REMARK   45  A    between atoms: _117  and  _118
REMARK   46  A    between atoms: _117  and  _120
REMARK   47  A    between atoms: _120  and  _121
REMARK   48  A    between atoms: _121  and  _122
REMARK   49  A    between atoms: _127  and  _129
REMARK   50  A    between atoms: _129  and  _130
REMARK   51  A    between atoms: _129  and  _132
REMARK   52  A    between atoms: _132  and  _133
REMARK   53  A    between atoms: _133  and  _134
REMARK   54  A    between atoms: _136  and  _138
REMARK   55  A    between atoms: _138  and  _139
REMARK   56  A    between atoms: _138  and  _141
REMARK   57  A    between atoms: _141  and  _142
REMARK   58  A    between atoms: _145  and  _147
REMARK   59  A    between atoms: _147  and  _148
REMARK   60  A    between atoms: _147  and  _150
REMARK   61  A    between atoms: _150  and  _151
REMARK   62  A    between atoms: _154  and  _156
REMARK   63  A    between atoms: _156  and  _157
REMARK   64  A    between atoms: _156  and  _159
REMARK   65  A    between atoms: _162  and  _164
REMARK   66  A    between atoms: _164  and  _165
REMARK   67  A    between atoms: _164  and  _167
REMARK   68  A    between atoms: _167  and  _168
REMARK   69  A    between atoms: _168  and  _169
REMARK   70  A    between atoms: _174  and  _176
REMARK   71  A    between atoms: _176  and  _177
REMARK   72  A    between atoms: _176  and  _179
REMARK   73  A    between atoms: _179  and  _180
REMARK   74  A    between atoms: _180  and  _181
REMARK   75  A    between atoms: _186  and  _188
REMARK   76  A    between atoms: _188  and  _189
REMARK   77  A    between atoms: _192  and  _194
REMARK   78  A    between atoms: _194  and  _195
REMARK   79  A    between atoms: _194  and  _197
REMARK   80  A    between atoms: _197  and  _198
REMARK   81  A    between atoms: _198  and  _199
REMARK   82  A    between atoms: _202  and  _204
REMARK   83  A    between atoms: _204  and  _205
REMARK   84  A    between atoms: _204  and  _207
REMARK   85  A    between atoms: _207  and  _208
REMARK   86  A    between atoms: _211  and  _213
REMARK   87  A    between atoms: _213  and  _214
REMARK   88  A    between atoms: _213  and  _216
REMARK   89  A    between atoms: _216  and  _217
REMARK   90  A    between atoms: _217  and  _218
REMARK   91  A    between atoms: _220  and  _222
REMARK   92  A    between atoms: _222  and  _223
REMARK   93  A    between atoms: _222  and  _225
REMARK   94  A    between atoms: _225  and  _226
REMARK   95  A    between atoms: _229  and  _231
REMARK   96  A    between atoms: _231  and  _232
REMARK   97  A    between atoms: _231  and  _234
REMARK   98  A    between atoms: _234  and  _235
REMARK   99  A    between atoms: _238  and  _240
REMARK  100  A    between atoms: _240  and  _241
REMARK  101  A    between atoms: _240  and  _243
REMARK  102  A    between atoms: _243  and  _244
REMARK  103  A    between atoms: _247  and  _249
REMARK  104  A    between atoms: _249  and  _250
REMARK  105  A    between atoms: _249  and  _252
REMARK  106  A    between atoms: _255  and  _257
REMARK  107  A    between atoms: _257  and  _258
REMARK  108  A    between atoms: _257  and  _260
REMARK  109  A    between atoms: _260  and  _261
REMARK                            x       y       z     vdW  Elec       q    Type
REMARK                         _______ _______ _______ _____ _____    ______ ____
ROOT
ATOM      1  CA  GLN A   7      15.491  14.847  -2.103  0.00  0.00    +0.149 C 
ENDROOT
BRANCH   1   3
ATOM      2  C   VAL A   6      14.863  12.618  -1.356  0.00  0.00    +0.241 C 
ATOM      3  N   GLN A   7      15.349  13.820  -1.073  0.00  0.00    -0.297 N 
ATOM      4  H   GLN A   7      15.635  14.036  -0.097  0.00  0.00    +0.150 HD
ATOM      5  O   VAL A   6      14.462  12.311  -2.473  0.00  0.00    -0.273 OA
BRANCH   2   6
ATOM      6  CA  VAL A   6      14.860  11.606  -0.221  0.00  0.00    +0.149 C 
BRANCH   6   8
ATOM      7  C   LEU A   5      17.258  11.295  -0.011  0.00  0.00    +0.241 C 
ATOM      8  N   VAL A   6      16.108  11.672   0.532  0.00  0.00    -0.297 N 
ATOM      9  H   VAL A   6      16.096  12.021   1.512  0.00  0.00    +0.150 HD
ATOM     10  O   LEU A   5      17.331  10.814  -1.143  0.00  0.00    -0.273 OA
BRANCH   7  11
ATOM     11  CA  LEU A   5      18.520  11.479   0.840  0.00  0.00    +0.149 C 
BRANCH  11  13
ATOM     12  C   LEU A   4      18.371  13.881   1.137  0.00  0.00    +0.241 C 
ATOM     13  N   LEU A   5      18.477  12.674   1.679  0.00  0.00    -0.297 N 
ATOM     14  H   LEU A   5      18.530  12.578   2.713  0.00  0.00    +0.150 HD
ATOM     15  O   LEU A   4      18.282  14.052  -0.082  0.00  0.00    -0.273 OA
BRANCH  12  16
ATOM     16  CA  LEU A   4      18.343  15.063   2.106  0.00  0.00    +0.149 C 
BRANCH  16  18
ATOM     17  C   MET A   3      16.194  14.527   3.132  0.00  0.00    +0.241 C 
ATOM     18  N   LEU A   4      17.486  14.813   3.264  0.00  0.00    -0.297 N 
ATOM     19  H   LEU A   4      17.898  14.860   4.218  0.00  0.00    +0.150 HD
ATOM     20  O   MET A   3      15.629  14.503   2.041  0.00  0.00    -0.273 OA
BRANCH  17  21
ATOM     21  CA  MET A   3      15.439  14.177   4.415  0.00  0.00    +0.149 C 
BRANCH  21  23
ATOM     22  C   GLN A   2      16.552  12.068   4.909  0.00  0.00    +0.241 C 
ATOM     23  N   MET A   3      16.252  13.318   5.266  0.00  0.00    -0.297 N 
ATOM     24  H   MET A   3      16.606  13.687   6.171  0.00  0.00    +0.150 HD
ATOM     25  O   GLN A   2      16.163  11.564   3.845  0.00  0.00    -0.273 OA
BRANCH  22  26
ATOM     26  CA  GLN A   2      17.428  11.265   5.874  0.00  0.00    +0.149 C 
BRANCH  26  28
ATOM     27  C   HIS A   1      19.419  12.627   5.565  0.00  0.00    +0.239 C 
ATOM     28  N   GLN A   2      18.549  12.055   6.389  0.00  0.00    -0.297 N 
ATOM     29  H   GLN A   2      18.665  12.170   7.416  0.00  0.00    +0.150 HD
ATOM     30  O   HIS A   1      19.330  12.526   4.353  0.00  0.00    -0.274 OA
BRANCH  27  31
ATOM     31  CA  HIS A   1      20.532  13.460   6.204  0.00  0.00    +0.151 C 
BRANCH  31  32
ATOM     32  N   HIS A   1      19.961  14.288   7.245  0.00  0.00    -0.238 NA
ATOM     33  H   HIS A   1      20.303  14.168   8.220  0.00  0.00    +0.142 HD
ENDBRANCH  31  32
BRANCH  31  34
ATOM     34  CB  HIS A   1      21.629  12.593   6.821  0.00  0.00    +0.074 C 
BRANCH  34  35
ATOM     35  CG  HIS A   1      22.367  11.733   5.850  0.00  0.00    +0.082 A 
ATOM     36  CD2 HIS A   1      22.860  10.481   5.980  0.00  0.00    +0.115 A 
ATOM     37  NE2 HIS A   1      23.482  10.164   4.797  0.00  0.00    -0.221 NA
ATOM     38  CE1 HIS A   1      23.373  11.187   3.968  0.00  0.00    +0.199 A 
ATOM     39  ND1 HIS A   1      22.709  12.151   4.581  0.00  0.00    -0.227 NA
ENDBRANCH  34  35
ENDBRANCH  31  34
ENDBRANCH  27  31
ENDBRANCH  26  28
BRANCH  26  40
ATOM     40  CB  GLN A   2      16.595  10.730   7.047  0.00  0.00    +0.039 C 
BRANCH  40  41
ATOM     41  CG  GLN A   2      15.374   9.881   6.681  0.00  0.00    +0.087 C 
BRANCH  41  42
ATOM     42  CD  GLN A   2      14.575   9.516   7.928  0.00  0.00    +0.219 C 
ATOM     43  NE2 GLN A   2      15.269   9.372   9.044  0.00  0.00    -0.329 N 
ATOM     44 HE21 GLN A   2      14.781   9.144   9.934  0.00  0.00    +0.145 HD
ATOM     45 HE22 GLN A   2      16.303   9.487   9.032  0.00  0.00    +0.145 HD
ATOM     46  OE1 GLN A   2      13.346   9.390   7.890  0.00  0.00    -0.275 OA
ENDBRANCH  41  42
ENDBRANCH  40  41
ENDBRANCH  26  40
ENDBRANCH  22  26
ENDBRANCH  21  23
BRANCH  21  47
ATOM     47  CB  MET A   3      15.003  15.434   5.187  0.00  0.00    +0.041 C 
BRANCH  47  48
ATOM     48  CG  MET A   3      14.055  15.119   6.349  0.00  0.00    +0.060 C 
BRANCH  48  49
ATOM     49  SD  MET A   3      13.515  16.611   7.196  0.00  0.00    -0.139 S 
ATOM     50  CE  MET A   3      12.600  17.414   5.886  0.00  0.00    +0.069 C 
ENDBRANCH  48  49
ENDBRANCH  47  48
ENDBRANCH  21  47
ENDBRANCH  17  21
ENDBRANCH  16  18
BRANCH  16  51
ATOM     51  CB  LEU A   4      19.761  15.384   2.576  0.00  0.00    +0.029 C 
BRANCH  51  52
ATOM     52  CG  LEU A   4      20.734  15.907   1.524  0.00  0.00    +0.002 C 
ATOM     53  CD2 LEU A   4      22.039  16.315   2.196  0.00  0.00    +0.000 C 
ATOM     54  CD1 LEU A   4      20.121  17.064   0.740  0.00  0.00    +0.000 C 
ENDBRANCH  51  52
ENDBRANCH  16  51
ENDBRANCH  12  16
ENDBRANCH  11  13
BRANCH  11  55
ATOM     55  CB  LEU A   5      18.788  10.226   1.676  0.00  0.00    +0.029 C 
BRANCH  55  56
ATOM     56  CG  LEU A   5      20.234  10.012   2.148  0.00  0.00    +0.002 C 
ATOM     57  CD2 LEU A   5      20.312   8.937   3.225  0.00  0.00    +0.000 C 
ATOM     58  CD1 LEU A   5      21.157   9.683   0.968  0.00  0.00    +0.000 C 
ENDBRANCH  55  56
ENDBRANCH  11  55
ENDBRANCH   7  11
ENDBRANCH   6   8
BRANCH   6  59
ATOM     59  CB  VAL A   6      13.639  11.787   0.702  0.00  0.00    +0.027 C 
ATOM     60  CG2 VAL A   6      13.471  10.546   1.577  0.00  0.00    +0.002 C 
ATOM     61  CG1 VAL A   6      12.382  12.066  -0.117  0.00  0.00    +0.002 C 
ENDBRANCH   6  59
ENDBRANCH   2   6
ENDBRANCH   1   3
BRANCH   1  62
ATOM     62  C   GLN A   7      16.451  14.405  -3.202  0.00  0.00    +0.241 C 
ATOM     63  N   GLN A   8      17.552  13.790  -2.799  0.00  0.00    -0.297 N 
ATOM     64  H   GLN A   8      17.681  13.606  -1.784  0.00  0.00    +0.150 HD
ATOM     65  O   GLN A   7      16.192  14.599  -4.386  0.00  0.00    -0.273 OA
BRANCH  63  66
ATOM     66  CA  GLN A   8      18.588  13.362  -3.727  0.00  0.00    +0.149 C 
BRANCH  66  67
ATOM     67  C   GLN A   8      18.242  12.069  -4.484  0.00  0.00    +0.241 C 
ATOM     68  N   ALA A   9      17.272  11.313  -3.967  0.00  0.00    -0.297 N 
ATOM     69  H   ALA A   9      16.808  11.612  -3.086  0.00  0.00    +0.150 HD
ATOM     70  O   GLN A   8      18.812  11.782  -5.542  0.00  0.00    -0.273 OA
BRANCH  68  71
ATOM     71  CA  ALA A   9      16.849  10.073  -4.615  0.00  0.00    +0.149 C 
ATOM     72  CB  ALA A   9      15.827   9.316  -3.738  0.00  0.00    +0.031 C 
BRANCH  71  73
ATOM     73  C   ALA A   9      16.248  10.351  -5.984  0.00  0.00    +0.241 C 
ATOM     74  N   GLU A  10      15.685  11.546  -6.155  0.00  0.00    -0.297 N 
ATOM     75  H   GLU A  10      15.722  12.239  -5.380  0.00  0.00    +0.150 HD
ATOM     76  O   ALA A   9      16.295   9.492  -6.869  0.00  0.00    -0.273 OA
BRANCH  74  77
ATOM     77  CA  GLU A  10      15.017  11.908  -7.402  0.00  0.00    +0.149 C 
BRANCH  77  78
ATOM     78  C   GLU A  10      15.950  11.780  -8.614  0.00  0.00    +0.241 C 
ATOM     79  N   ASP A  11      17.247  11.988  -8.391  0.00  0.00    -0.297 N 
ATOM     80  H   ASP A  11      17.569  12.214  -7.428  0.00  0.00    +0.150 HD
ATOM     81  O   GLU A  10      15.497  11.486  -9.726  0.00  0.00    -0.273 OA
BRANCH  79  82
ATOM     82  CA  ASP A  11      18.226  11.905  -9.471  0.00  0.00    +0.160 C 
BRANCH  82  83
ATOM     83  C   ASP A  11      18.280  10.507 -10.073  0.00  0.00    +0.241 C 
ATOM     84  N   MET A  12      18.382   9.495  -9.217  0.00  0.00    -0.297 N 
ATOM     85  H   MET A  12      18.417   9.689  -8.196  0.00  0.00    +0.150 HD
ATOM     86  O   ASP A  11      18.239  10.348 -11.293  0.00  0.00    -0.273 OA
BRANCH  84  87
ATOM     87  CA  MET A  12      18.445   8.119  -9.690  0.00  0.00    +0.149 C 
BRANCH  87  88
ATOM     88  C   MET A  12      17.108   7.703 -10.283  0.00  0.00    +0.241 C 
ATOM     89  N   ILE A  13      16.025   8.195  -9.688  0.00  0.00    -0.298 N 
ATOM     90  H   ILE A  13      16.135   8.815  -8.860  0.00  0.00    +0.150 HD
ATOM     91  O   MET A  12      17.056   6.945 -11.253  0.00  0.00    -0.273 OA
BRANCH  89  92
ATOM     92  CA  ILE A  13      14.692   7.883 -10.173  0.00  0.00    +0.137 C 
BRANCH  92  93
ATOM     93  C   ILE A  13      14.551   8.406 -11.606  0.00  0.00    +0.227 C 
ATOM     94  O   ILE A  13      14.062   7.699 -12.485  0.00  0.00    -0.286 OA
ENDBRANCH  92  93
BRANCH  92  95
ATOM     95  CB  ILE A  13      13.594   8.486  -9.262  0.00  0.00    +0.026 C 
ATOM     96  CG2 ILE A  13      12.240   8.402  -9.943  0.00  0.00    +0.002 C 
BRANCH  95  97
ATOM     97  CG1 ILE A  13      13.578   7.772  -7.904  0.00  0.00    +0.002 C 
ATOM     98  CD1 ILE A  13      12.772   8.504  -6.821  0.00  0.00    +0.000 C 
ENDBRANCH  95  97
ENDBRANCH  92  95
ENDBRANCH  89  92
ENDBRANCH  87  88
BRANCH  87  99
ATOM     99  CB  MET A  12      18.827   7.157  -8.562  0.00  0.00    +0.041 C 
BRANCH  99 100
ATOM    100  CG  MET A  12      19.173   5.754  -9.057  0.00  0.00    +0.060 C 
BRANCH 100 101
ATOM    101  SD  MET A  12      19.169   4.478  -7.780  0.00  0.00    -0.139 S 
ATOM    102  CE  MET A  12      19.941   3.129  -8.656  0.00  0.00    +0.069 C 
ENDBRANCH 100 101
ENDBRANCH  99 100
ENDBRANCH  87  99
ENDBRANCH  84  87
ENDBRANCH  82  83
BRANCH  82 103
ATOM    103  CB  ASP A  11      19.621  12.301  -8.985  0.00  0.00    +0.143 C 
BRANCH 103 104
ATOM    104  CG  ASP A  11      19.708  13.759  -8.590  0.00  0.00    +0.367 C 
ATOM    105  OD2 ASP A  11      20.622  14.098  -7.804  0.00  0.00    -0.246 OA
ATOM    106  OD1 ASP A  11      18.875  14.564  -9.069  0.00  0.00    -0.246 OA
ENDBRANCH 103 104
ENDBRANCH  82 103
ENDBRANCH  79  82
ENDBRANCH  77  78
BRANCH  77 107
ATOM    107  CB  GLU A  10      14.432  13.325  -7.319  0.00  0.00    +0.041 C 
BRANCH 107 108
ATOM    108  CG  GLU A  10      13.650  13.756  -8.561  0.00  0.00    +0.116 C 
BRANCH 108 109
ATOM    109  CD  GLU A  10      12.760  14.973  -8.321  0.00  0.00    +0.365 C 
ATOM    110  OE2 GLU A  10      12.911  15.653  -7.282  0.00  0.00    -0.246 OA
ATOM    111  OE1 GLU A  10      11.891  15.241  -9.171  0.00  0.00    -0.246 OA
ENDBRANCH 108 109
ENDBRANCH 107 108
ENDBRANCH  77 107
ENDBRANCH  74  77
ENDBRANCH  71  73
ENDBRANCH  68  71
ENDBRANCH  66  67
BRANCH  66 112
ATOM    112  CB  GLN A   8      19.901  13.259  -2.953  0.00  0.00    +0.039 C 
BRANCH 112 113
ATOM    113  CG  GLN A   8      20.829  12.138  -3.301  0.00  0.00    +0.087 C 
BRANCH 113 114
ATOM    114  CD  GLN A   8      21.981  12.075  -2.314  0.00  0.00    +0.219 C 
ATOM    115  OE1 GLN A   8      22.009  12.825  -1.327  0.00  0.00    -0.275 OA
ATOM    116  NE2 GLN A   8      22.935  11.189  -2.571  0.00  0.00    -0.329 N 
ATOM    117 HE21 GLN A   8      23.750  11.102  -1.931  0.00  0.00    +0.145 HD
ATOM    118 HE22 GLN A   8      22.867  10.581  -3.412  0.00  0.00    +0.145 HD
ENDBRANCH 113 114
ENDBRANCH 112 113
ENDBRANCH  66 112
ENDBRANCH  63  66
ENDBRANCH   1  62
BRANCH   1 119
ATOM    119  CB  GLN A   7      15.984  16.144  -1.470  0.00  0.00    +0.039 C 
BRANCH 119 120
ATOM    120  CG  GLN A   7      14.991  16.752  -0.506  0.00  0.00    +0.087 C 
BRANCH 120 121
ATOM    121  CD  GLN A   7      15.619  17.791   0.400  0.00  0.00    +0.219 C 
ATOM    122  OE1 GLN A   7      15.011  18.218   1.378  0.00  0.00    -0.275 OA
ATOM    123  NE2 GLN A   7      16.852  18.186   0.091  0.00  0.00    -0.329 N 
ATOM    124 HE21 GLN A   7      17.339  18.884   0.688  0.00  0.00    +0.145 HD
ATOM    125 HE22 GLN A   7      17.328  17.797  -0.748  0.00  0.00    +0.145 HD
ENDBRANCH 120 121
ENDBRANCH 119 120
ENDBRANCH   1 119
TORSDOF 55
REMARK  Name = ../refined-set-2016/4b33/4b33_pocket.pdb
REMARK  109 active torsions:
REMARK  status: ('A' for Active; 'I' for Inactive)
REMARK    1  A    between atoms: _1  and  _3
REMARK    2  A    between atoms: _3  and  _4
REMARK    3  A    between atoms: _3  and  _6
REMARK    4  A    between atoms: _9  and  _11
REMARK    5  A    between atoms: _11  and  _12
REMARK    6  A    between atoms: _11  and  _14
REMARK    7  A    between atoms: _14  and  _15
REMARK    8  A    between atoms: _15  and  _16
REMARK    9  A    between atoms: _18  and  _20
REMARK   10  A    between atoms: _20  and  _21
REMARK   11  A    between atoms: _20  and  _23
REMARK   12  A    between atoms: _23  and  _24
REMARK   13  A    between atoms: _34  and  _36
REMARK   14  A    between atoms: _36  and  _37
REMARK   15  A    between atoms: _36  and  _39
REMARK   16  A    between atoms: _39  and  _40
REMARK   17  A    between atoms: _43  and  _45
REMARK   18  A    between atoms: _45  and  _46
REMARK   19  A    between atoms: _45  and  _48
REMARK   20  A    between atoms: _48  and  _49
REMARK   21  A    between atoms: _52  and  _54
REMARK   22  A    between atoms: _54  and  _55
REMARK   23  A    between atoms: _54  and  _57
REMARK   24  A    between atoms: _57  and  _58
REMARK   25  A    between atoms: _61  and  _63
REMARK   26  A    between atoms: _63  and  _64
REMARK   27  A    between atoms: _67  and  _69
REMARK   28  A    between atoms: _69  and  _70
REMARK   29  A    between atoms: _69  and  _72
REMARK   30  A    between atoms: _72  and  _73
REMARK   31  A    between atoms: _78  and  _79
REMARK   32  A    between atoms: _81  and  _83
REMARK   33  A    between atoms: _83  and  _84
REMARK   34  A    between atoms: _87  and  _89
REMARK   35  A    between atoms: _89  and  _90
REMARK   36  A    between atoms: _89  and  _92
REMARK   37  A    between atoms: _92  and  _93
REMARK   38  A    between atoms: _93  and  _94
REMARK   39  A    between atoms: _94  and  _95
REMARK   40  A    between atoms: _104  and  _106
REMARK   41  A    between atoms: _106  and  _107
REMARK   42  A    between atoms: _106  and  _109
REMARK   43  A    between atoms: _109  and  _110
REMARK   44  A    between atoms: _115  and  _117
REMARK   45  A    between atoms: _117  and  _118
REMARK   46  A    between atoms: _117  and  _120
REMARK   47  A    between atoms: _120  and  _121
REMARK   48  A    between atoms: _121  and  _122
REMARK   49  A    between atoms: _127  and  _129
REMARK   50  A    between atoms: _129  and  _130
REMARK   51  A    between atoms: _129  and  _132
REMARK   52  A    between atoms: _132  and  _133
REMARK   53  A    between atoms: _133  and  _134
REMARK   54  A    between atoms: _136  and  _138
REMARK   55  A    between atoms: _138  and  _139
REMARK   56  A    between atoms: _138  and  _141
REMARK   57  A    between atoms: _141  and  _142
REMARK   58  A    between atoms: _145  and  _147
REMARK   59  A    between atoms: _147  and  _148
REMARK   60  A    between atoms: _147  and  _150
REMARK   61  A    between atoms: _150  and  _151
REMARK   62  A    between atoms: _154  and  _156
REMARK   63  A    between atoms: _156  and  _157
REMARK   64  A    between atoms: _156  and  _159
REMARK   65  A    between atoms: _162  and  _164
REMARK   66  A    between atoms: _164  and  _165
REMARK   67  A    between atoms: _164  and  _167
REMARK   68  A    between atoms: _167  and  _168
REMARK   69  A    between atoms: _168  and  _169
REMARK   70  A    between atoms: _174  and  _176
REMARK   71  A    between atoms: _176  and  _177
REMARK   72  A    between atoms: _176  and  _179
REMARK   73  A    between atoms: _179  and  _180
REMARK   74  A    between atoms: _180  and  _181
REMARK   75  A    between atoms: _186  and  _188
REMARK   76  A    between atoms: _188  and  _189
REMARK   77  A    between atoms: _192  and  _194
REMARK   78  A    between atoms: _194  and  _195
REMARK   79  A    between atoms: _194  and  _197
REMARK   80  A    between atoms: _197  and  _198
REMARK   81  A    between atoms: _198  and  _199
REMARK   82  A    between atoms: _202  and  _204
REMARK   83  A    between atoms: _204  and  _205
REMARK   84  A    between atoms: _204  and  _207
REMARK   85  A    between atoms: _207  and  _208
REMARK   86  A    between atoms: _211  and  _213
REMARK   87  A    between atoms: _213  and  _214
REMARK   88  A    between atoms: _213  and  _216
REMARK   89  A    between atoms: _216  and  _217
REMARK   90  A    between atoms: _217  and  _218
REMARK   91  A    between atoms: _220  and  _222
REMARK   92  A    between atoms: _222  and  _223
REMARK   93  A    between atoms: _222  and  _225
REMARK   94  A    between atoms: _225  and  _226
REMARK   95  A    between atoms: _229  and  _231
REMARK   96  A    between atoms: _231  and  _232
REMARK   97  A    between atoms: _231  and  _234
REMARK   98  A    between atoms: _234  and  _235
REMARK   99  A    between atoms: _238  and  _240
REMARK  100  A    between atoms: _240  and  _241
REMARK  101  A    between atoms: _240  and  _243
REMARK  102  A    between atoms: _243  and  _244
REMARK  103  A    between atoms: _247  and  _249
REMARK  104  A    between atoms: _249  and  _250
REMARK  105  A    between atoms: _249  and  _252
REMARK  106  A    between atoms: _255  and  _257
REMARK  107  A    between atoms: _257  and  _258
REMARK  108  A    between atoms: _257  and  _260
REMARK  109  A    between atoms: _260  and  _261
REMARK                            x       y       z     vdW  Elec       q    Type
REMARK                         _______ _______ _______ _____ _____    ______ ____
ROOT
ATOM      1  CA  ILE A   2      11.772   2.059   1.353  0.00  0.00    +0.148 C 
ENDROOT
BRANCH   1   3
ATOM      2  C   LEU A   1      11.002   2.987  -0.759  0.00  0.00    +0.238 C 
ATOM      3  N   ILE A   2      11.975   2.447  -0.036  0.00  0.00    -0.297 N 
ATOM      4  H   ILE A   2      12.907   2.297  -0.473  0.00  0.00    +0.150 HD
ATOM      5  O   LEU A   1       9.870   3.197  -0.324  0.00  0.00    -0.274 OA
BRANCH   2   6
ATOM      6  CA  LEU A   1      11.340   3.303  -2.193  0.00  0.00    +0.145 C 
BRANCH   6   7
ATOM      7  N   LEU A   1      10.445   2.504  -3.012  0.00  0.00    -0.238 NA
ATOM      8  H   LEU A   1       9.419   2.606  -2.872  0.00  0.00    +0.142 HD
ENDBRANCH   6   7
BRANCH   6   9
ATOM      9  CB  LEU A   1      11.141   4.793  -2.478  0.00  0.00    +0.026 C 
BRANCH   9  10
ATOM     10  CG  LEU A   1      11.819   5.816  -1.573  0.00  0.00    +0.002 C 
ATOM     11  CD2 LEU A   1      13.305   5.535  -1.442  0.00  0.00    +0.000 C 
ATOM     12  CD1 LEU A   1      11.574   7.222  -2.137  0.00  0.00    +0.000 C 
ENDBRANCH   9  10
ENDBRANCH   6   9
ENDBRANCH   2   6
ENDBRANCH   1   3
BRANCH   1  13
ATOM     13  C   ILE A   2      12.454   3.051   2.281  0.00  0.00    +0.241 C 
ATOM     14  N   VAL A   3      11.769   3.463   3.345  0.00  0.00    -0.298 N 
ATOM     15  H   VAL A   3      10.748   3.271   3.401  0.00  0.00    +0.150 HD
ATOM     16  O   ILE A   2      13.596   3.445   2.030  0.00  0.00    -0.273 OA
BRANCH  14  17
ATOM     17  CA  VAL A   3      12.424   4.178   4.433  0.00  0.00    +0.137 C 
BRANCH  17  18
ATOM     18  CB  VAL A   3      11.897   5.612   4.609  0.00  0.00    +0.026 C 
ATOM     19  CG2 VAL A   3      12.747   6.371   5.653  0.00  0.00    +0.002 C 
ATOM     20  CG1 VAL A   3      11.880   6.341   3.250  0.00  0.00    +0.002 C 
ENDBRANCH  17  18
BRANCH  17  21
ATOM     21  C   VAL A   3      12.179   3.377   5.702  0.00  0.00    +0.227 C 
ATOM     22  O   VAL A   3      11.040   3.296   6.181  0.00  0.00    -0.286 OA
ENDBRANCH  17  21
ENDBRANCH  14  17
ENDBRANCH   1  13
BRANCH   1  23
ATOM     23  CB  ILE A   2      12.338   0.631   1.591  0.00  0.00    +0.027 C 
ATOM     24  CG2 ILE A   2      12.567   0.327   3.088  0.00  0.00    +0.002 C 
BRANCH  23  25
ATOM     25  CG1 ILE A   2      11.424  -0.431   0.966  0.00  0.00    +0.002 C 
ATOM     26  CD1 ILE A   2      12.091  -1.765   0.726  0.00  0.00    +0.000 C 
ENDBRANCH  23  25
ENDBRANCH   1  23
TORSDOF 11
REMARK  Name = ../refined-set-2016/4b33/4b33_pocket.pdb
REMARK  109 active torsions:
REMARK  status: ('A' for Active; 'I' for Inactive)
REMARK    1  A    between atoms: _1  and  _3
REMARK    2  A    between atoms: _3  and  _4
REMARK    3  A    between atoms: _3  and  _6
REMARK    4  A    between atoms: _9  and  _11
REMARK    5  A    between atoms: _11  and  _12
REMARK    6  A    between atoms: _11  and  _14
REMARK    7  A    between atoms: _14  and  _15
REMARK    8  A    between atoms: _15  and  _16
REMARK    9  A    between atoms: _18  and  _20
REMARK   10  A    between atoms: _20  and  _21
REMARK   11  A    between atoms: _20  and  _23
REMARK   12  A    between atoms: _23  and  _24
REMARK   13  A    between atoms: _34  and  _36
REMARK   14  A    between atoms: _36  and  _37
REMARK   15  A    between atoms: _36  and  _39
REMARK   16  A    between atoms: _39  and  _40
REMARK   17  A    between atoms: _43  and  _45
REMARK   18  A    between atoms: _45  and  _46
REMARK   19  A    between atoms: _45  and  _48
REMARK   20  A    between atoms: _48  and  _49
REMARK   21  A    between atoms: _52  and  _54
REMARK   22  A    between atoms: _54  and  _55
REMARK   23  A    between atoms: _54  and  _57
REMARK   24  A    between atoms: _57  and  _58
REMARK   25  A    between atoms: _61  and  _63
REMARK   26  A    between atoms: _63  and  _64
REMARK   27  A    between atoms: _67  and  _69
REMARK   28  A    between atoms: _69  and  _70
REMARK   29  A    between atoms: _69  and  _72
REMARK   30  A    between atoms: _72  and  _73
REMARK   31  A    between atoms: _78  and  _79
REMARK   32  A    between atoms: _81  and  _83
REMARK   33  A    between atoms: _83  and  _84
REMARK   34  A    between atoms: _87  and  _89
REMARK   35  A    between atoms: _89  and  _90
REMARK   36  A    between atoms: _89  and  _92
REMARK   37  A    between atoms: _92  and  _93
REMARK   38  A    between atoms: _93  and  _94
REMARK   39  A    between atoms: _94  and  _95
REMARK   40  A    between atoms: _104  and  _106
REMARK   41  A    between atoms: _106  and  _107
REMARK   42  A    between atoms: _106  and  _109
REMARK   43  A    between atoms: _109  and  _110
REMARK   44  A    between atoms: _115  and  _117
REMARK   45  A    between atoms: _117  and  _118
REMARK   46  A    between atoms: _117  and  _120
REMARK   47  A    between atoms: _120  and  _121
REMARK   48  A    between atoms: _121  and  _122
REMARK   49  A    between atoms: _127  and  _129
REMARK   50  A    between atoms: _129  and  _130
REMARK   51  A    between atoms: _129  and  _132
REMARK   52  A    between atoms: _132  and  _133
REMARK   53  A    between atoms: _133  and  _134
REMARK   54  A    between atoms: _136  and  _138
REMARK   55  A    between atoms: _138  and  _139
REMARK   56  A    between atoms: _138  and  _141
REMARK   57  A    between atoms: _141  and  _142
REMARK   58  A    between atoms: _145  and  _147
REMARK   59  A    between atoms: _147  and  _148
REMARK   60  A    between atoms: _147  and  _150
REMARK   61  A    between atoms: _150  and  _151
REMARK   62  A    between atoms: _154  and  _156
REMARK   63  A    between atoms: _156  and  _157
REMARK   64  A    between atoms: _156  and  _159
REMARK   65  A    between atoms: _162  and  _164
REMARK   66  A    between atoms: _164  and  _165
REMARK   67  A    between atoms: _164  and  _167
REMARK   68  A    between atoms: _167  and  _168
REMARK   69  A    between atoms: _168  and  _169
REMARK   70  A    between atoms: _174  and  _176
REMARK   71  A    between atoms: _176  and  _177
REMARK   72  A    between atoms: _176  and  _179
REMARK   73  A    between atoms: _179  and  _180
REMARK   74  A    between atoms: _180  and  _181
REMARK   75  A    between atoms: _186  and  _188
REMARK   76  A    between atoms: _188  and  _189
REMARK   77  A    between atoms: _192  and  _194
REMARK   78  A    between atoms: _194  and  _195
REMARK   79  A    between atoms: _194  and  _197
REMARK   80  A    between atoms: _197  and  _198
REMARK   81  A    between atoms: _198  and  _199
REMARK   82  A    between atoms: _202  and  _204
REMARK   83  A    between atoms: _204  and  _205
REMARK   84  A    between atoms: _204  and  _207
REMARK   85  A    between atoms: _207  and  _208
REMARK   86  A    between atoms: _211  and  _213
REMARK   87  A    between atoms: _213  and  _214
REMARK   88  A    between atoms: _213  and  _216
REMARK   89  A    between atoms: _216  and  _217
REMARK   90  A    between atoms: _217  and  _218
REMARK   91  A    between atoms: _220  and  _222
REMARK   92  A    between atoms: _222  and  _223
REMARK   93  A    between atoms: _222  and  _225
REMARK   94  A    between atoms: _225  and  _226
REMARK   95  A    between atoms: _229  and  _231
REMARK   96  A    between atoms: _231  and  _232
REMARK   97  A    between atoms: _231  and  _234
REMARK   98  A    between atoms: _234  and  _235
REMARK   99  A    between atoms: _238  and  _240
REMARK  100  A    between atoms: _240  and  _241
REMARK  101  A    between atoms: _240  and  _243
REMARK  102  A    between atoms: _243  and  _244
REMARK  103  A    between atoms: _247  and  _249
REMARK  104  A    between atoms: _249  and  _250
REMARK  105  A    between atoms: _249  and  _252
REMARK  106  A    between atoms: _255  and  _257
REMARK  107  A    between atoms: _257  and  _258
REMARK  108  A    between atoms: _257  and  _260
REMARK  109  A    between atoms: _260  and  _261
REMARK                            x       y       z     vdW  Elec       q    Type
REMARK                         _______ _______ _______ _____ _____    ______ ____
ROOT
ATOM      1  CA  LEU A   1       8.111  11.035  -5.589  0.00  0.00    +0.133 C 
ENDROOT
BRANCH   1   2
ATOM      2  N   LEU A   1       7.385  12.034  -4.807  0.00  0.00    -0.239 NA
ATOM      3  H   LEU A   1       7.676  12.234  -3.829  0.00  0.00    +0.142 HD
ENDBRANCH   1   2
BRANCH   1   4
ATOM      4  C   LEU A   1       7.181   9.895  -5.990  0.00  0.00    +0.224 C 
ATOM      5  O   LEU A   1       7.203   9.439  -7.124  0.00  0.00    -0.287 OA
ENDBRANCH   1   4
BRANCH   1   6
ATOM      6  CB  LEU A   1       9.318  10.481  -4.830  0.00  0.00    +0.025 C 
BRANCH   6   7
ATOM      7  CG  LEU A   1      10.438  11.471  -4.522  0.00  0.00    +0.002 C 
ATOM      8  CD2 LEU A   1      11.620  10.750  -3.892  0.00  0.00    +0.000 C 
ATOM      9  CD1 LEU A   1      10.896  12.205  -5.793  0.00  0.00    +0.000 C 
ENDBRANCH   6   7
ENDBRANCH   1   6
TORSDOF 4
REMARK  Name = ../refined-set-2016/4b33/4b33_pocket.pdb
REMARK  109 active torsions:
REMARK  status: ('A' for Active; 'I' for Inactive)
REMARK    1  A    between atoms: _1  and  _3
REMARK    2  A    between atoms: _3  and  _4
REMARK    3  A    between atoms: _3  and  _6
REMARK    4  A    between atoms: _9  and  _11
REMARK    5  A    between atoms: _11  and  _12
REMARK    6  A    between atoms: _11  and  _14
REMARK    7  A    between atoms: _14  and  _15
REMARK    8  A    between atoms: _15  and  _16
REMARK    9  A    between atoms: _18  and  _20
REMARK   10  A    between atoms: _20  and  _21
REMARK   11  A    between atoms: _20  and  _23
REMARK   12  A    between atoms: _23  and  _24
REMARK   13  A    between atoms: _34  and  _36
REMARK   14  A    between atoms: _36  and  _37
REMARK   15  A    between atoms: _36  and  _39
REMARK   16  A    between atoms: _39  and  _40
REMARK   17  A    between atoms: _43  and  _45
REMARK   18  A    between atoms: _45  and  _46
REMARK   19  A    between atoms: _45  and  _48
REMARK   20  A    between atoms: _48  and  _49
REMARK   21  A    between atoms: _52  and  _54
REMARK   22  A    between atoms: _54  and  _55
REMARK   23  A    between atoms: _54  and  _57
REMARK   24  A    between atoms: _57  and  _58
REMARK   25  A    between atoms: _61  and  _63
REMARK   26  A    between atoms: _63  and  _64
REMARK   27  A    between atoms: _67  and  _69
REMARK   28  A    between atoms: _69  and  _70
REMARK   29  A    between atoms: _69  and  _72
REMARK   30  A    between atoms: _72  and  _73
REMARK   31  A    between atoms: _78  and  _79
REMARK   32  A    between atoms: _81  and  _83
REMARK   33  A    between atoms: _83  and  _84
REMARK   34  A    between atoms: _87  and  _89
REMARK   35  A    between atoms: _89  and  _90
REMARK   36  A    between atoms: _89  and  _92
REMARK   37  A    between atoms: _92  and  _93
REMARK   38  A    between atoms: _93  and  _94
REMARK   39  A    between atoms: _94  and  _95
REMARK   40  A    between atoms: _104  and  _106
REMARK   41  A    between atoms: _106  and  _107
REMARK   42  A    between atoms: _106  and  _109
REMARK   43  A    between atoms: _109  and  _110
REMARK   44  A    between atoms: _115  and  _117
REMARK   45  A    between atoms: _117  and  _118
REMARK   46  A    between atoms: _117  and  _120
REMARK   47  A    between atoms: _120  and  _121
REMARK   48  A    between atoms: _121  and  _122
REMARK   49  A    between atoms: _127  and  _129
REMARK   50  A    between atoms: _129  and  _130
REMARK   51  A    between atoms: _129  and  _132
REMARK   52  A    between atoms: _132  and  _133
REMARK   53  A    between atoms: _133  and  _134
REMARK   54  A    between atoms: _136  and  _138
REMARK   55  A    between atoms: _138  and  _139
REMARK   56  A    between atoms: _138  and  _141
REMARK   57  A    between atoms: _141  and  _142
REMARK   58  A    between atoms: _145  and  _147
REMARK   59  A    between atoms: _147  and  _148
REMARK   60  A    between atoms: _147  and  _150
REMARK   61  A    between atoms: _150  and  _151
REMARK   62  A    between atoms: _154  and  _156
REMARK   63  A    between atoms: _156  and  _157
REMARK   64  A    between atoms: _156  and  _159
REMARK   65  A    between atoms: _162  and  _164
REMARK   66  A    between atoms: _164  and  _165
REMARK   67  A    between atoms: _164  and  _167
REMARK   68  A    between atoms: _167  and  _168
REMARK   69  A    between atoms: _168  and  _169
REMARK   70  A    between atoms: _174  and  _176
REMARK   71  A    between atoms: _176  and  _177
REMARK   72  A    between atoms: _176  and  _179
REMARK   73  A    between atoms: _179  and  _180
REMARK   74  A    between atoms: _180  and  _181
REMARK   75  A    between atoms: _186  and  _188
REMARK   76  A    between atoms: _188  and  _189
REMARK   77  A    between atoms: _192  and  _194
REMARK   78  A    between atoms: _194  and  _195
REMARK   79  A    between atoms: _194  and  _197
REMARK   80  A    between atoms: _197  and  _198
REMARK   81  A    between atoms: _198  and  _199
REMARK   82  A    between atoms: _202  and  _204
REMARK   83  A    between atoms: _204  and  _205
REMARK   84  A    between atoms: _204  and  _207
REMARK   85  A    between atoms: _207  and  _208
REMARK   86  A    between atoms: _211  and  _213
REMARK   87  A    between atoms: _213  and  _214
REMARK   88  A    between atoms: _213  and  _216
REMARK   89  A    between atoms: _216  and  _217
REMARK   90  A    between atoms: _217  and  _218
REMARK   91  A    between atoms: _220  and  _222
REMARK   92  A    between atoms: _222  and  _223
REMARK   93  A    between atoms: _222  and  _225
REMARK   94  A    between atoms: _225  and  _226
REMARK   95  A    between atoms: _229  and  _231
REMARK   96  A    between atoms: _231  and  _232
REMARK   97  A    between atoms: _231  and  _234
REMARK   98  A    between atoms: _234  and  _235
REMARK   99  A    between atoms: _238  and  _240
REMARK  100  A    between atoms: _240  and  _241
REMARK  101  A    between atoms: _240  and  _243
REMARK  102  A    between atoms: _243  and  _244
REMARK  103  A    between atoms: _247  and  _249
REMARK  104  A    between atoms: _249  and  _250
REMARK  105  A    between atoms: _249  and  _252
REMARK  106  A    between atoms: _255  and  _257
REMARK  107  A    between atoms: _257  and  _258
REMARK  108  A    between atoms: _257  and  _260
REMARK  109  A    between atoms: _260  and  _261
REMARK                            x       y       z     vdW  Elec       q    Type
REMARK                         _______ _______ _______ _____ _____    ______ ____
ROOT
ATOM      1  O   HOH     1      17.629   1.316  -7.923  0.00  0.00    +0.000 OA
ENDROOT
TORSDOF 0
REMARK  Name = ../refined-set-2016/4b33/4b33_pocket.pdb
REMARK  109 active torsions:
REMARK  status: ('A' for Active; 'I' for Inactive)
REMARK    1  A    between atoms: _1  and  _3
REMARK    2  A    between atoms: _3  and  _4
REMARK    3  A    between atoms: _3  and  _6
REMARK    4  A    between atoms: _9  and  _11
REMARK    5  A    between atoms: _11  and  _12
REMARK    6  A    between atoms: _11  and  _14
REMARK    7  A    between atoms: _14  and  _15
REMARK    8  A    between atoms: _15  and  _16
REMARK    9  A    between atoms: _18  and  _20
REMARK   10  A    between atoms: _20  and  _21
REMARK   11  A    between atoms: _20  and  _23
REMARK   12  A    between atoms: _23  and  _24
REMARK   13  A    between atoms: _34  and  _36
REMARK   14  A    between atoms: _36  and  _37
REMARK   15  A    between atoms: _36  and  _39
REMARK   16  A    between atoms: _39  and  _40
REMARK   17  A    between atoms: _43  and  _45
REMARK   18  A    between atoms: _45  and  _46
REMARK   19  A    between atoms: _45  and  _48
REMARK   20  A    between atoms: _48  and  _49
REMARK   21  A    between atoms: _52  and  _54
REMARK   22  A    between atoms: _54  and  _55
REMARK   23  A    between atoms: _54  and  _57
REMARK   24  A    between atoms: _57  and  _58
REMARK   25  A    between atoms: _61  and  _63
REMARK   26  A    between atoms: _63  and  _64
REMARK   27  A    between atoms: _67  and  _69
REMARK   28  A    between atoms: _69  and  _70
REMARK   29  A    between atoms: _69  and  _72
REMARK   30  A    between atoms: _72  and  _73
REMARK   31  A    between atoms: _78  and  _79
REMARK   32  A    between atoms: _81  and  _83
REMARK   33  A    between atoms: _83  and  _84
REMARK   34  A    between atoms: _87  and  _89
REMARK   35  A    between atoms: _89  and  _90
REMARK   36  A    between atoms: _89  and  _92
REMARK   37  A    between atoms: _92  and  _93
REMARK   38  A    between atoms: _93  and  _94
REMARK   39  A    between atoms: _94  and  _95
REMARK   40  A    between atoms: _104  and  _106
REMARK   41  A    between atoms: _106  and  _107
REMARK   42  A    between atoms: _106  and  _109
REMARK   43  A    between atoms: _109  and  _110
REMARK   44  A    between atoms: _115  and  _117
REMARK   45  A    between atoms: _117  and  _118
REMARK   46  A    between atoms: _117  and  _120
REMARK   47  A    between atoms: _120  and  _121
REMARK   48  A    between atoms: _121  and  _122
REMARK   49  A    between atoms: _127  and  _129
REMARK   50  A    between atoms: _129  and  _130
REMARK   51  A    between atoms: _129  and  _132
REMARK   52  A    between atoms: _132  and  _133
REMARK   53  A    between atoms: _133  and  _134
REMARK   54  A    between atoms: _136  and  _138
REMARK   55  A    between atoms: _138  and  _139
REMARK   56  A    between atoms: _138  and  _141
REMARK   57  A    between atoms: _141  and  _142
REMARK   58  A    between atoms: _145  and  _147
REMARK   59  A    between atoms: _147  and  _148
REMARK   60  A    between atoms: _147  and  _150
REMARK   61  A    between atoms: _150  and  _151
REMARK   62  A    between atoms: _154  and  _156
REMARK   63  A    between atoms: _156  and  _157
REMARK   64  A    between atoms: _156  and  _159
REMARK   65  A    between atoms: _162  and  _164
REMARK   66  A    between atoms: _164  and  _165
REMARK   67  A    between atoms: _164  and  _167
REMARK   68  A    between atoms: _167  and  _168
REMARK   69  A    between atoms: _168  and  _169
REMARK   70  A    between atoms: _174  and  _176
REMARK   71  A    between atoms: _176  and  _177
REMARK   72  A    between atoms: _176  and  _179
REMARK   73  A    between atoms: _179  and  _180
REMARK   74  A    between atoms: _180  and  _181
REMARK   75  A    between atoms: _186  and  _188
REMARK   76  A    between atoms: _188  and  _189
REMARK   77  A    between atoms: _192  and  _194
REMARK   78  A    between atoms: _194  and  _195
REMARK   79  A    between atoms: _194  and  _197
REMARK   80  A    between atoms: _197  and  _198
REMARK   81  A    between atoms: _198  and  _199
REMARK   82  A    between atoms: _202  and  _204
REMARK   83  A    between atoms: _204  and  _205
REMARK   84  A    between atoms: _204  and  _207
REMARK   85  A    between atoms: _207  and  _208
REMARK   86  A    between atoms: _211  and  _213
REMARK   87  A    between atoms: _213  and  _214
REMARK   88  A    between atoms: _213  and  _216
REMARK   89  A    between atoms: _216  and  _217
REMARK   90  A    between atoms: _217  and  _218
REMARK   91  A    between atoms: _220  and  _222
REMARK   92  A    between atoms: _222  and  _223
REMARK   93  A    between atoms: _222  and  _225
REMARK   94  A    between atoms: _225  and  _226
REMARK   95  A    between atoms: _229  and  _231
REMARK   96  A    between atoms: _231  and  _232
REMARK   97  A    between atoms: _231  and  _234
REMARK   98  A    between atoms: _234  and  _235
REMARK   99  A    between atoms: _238  and  _240
REMARK  100  A    between atoms: _240  and  _241
REMARK  101  A    between atoms: _240  and  _243
REMARK  102  A    between atoms: _243  and  _244
REMARK  103  A    between atoms: _247  and  _249
REMARK  104  A    between atoms: _249  and  _250
REMARK  105  A    between atoms: _249  and  _252
REMARK  106  A    between atoms: _255  and  _257
REMARK  107  A    between atoms: _257  and  _258
REMARK  108  A    between atoms: _257  and  _260
REMARK  109  A    between atoms: _260  and  _261
REMARK                            x       y       z     vdW  Elec       q    Type
REMARK                         _______ _______ _______ _____ _____    ______ ____
ROOT
ATOM      1  O   HOH     1      19.603   0.128  -9.007  0.00  0.00    +0.000 OA
ENDROOT
TORSDOF 0
REMARK  Name = ../refined-set-2016/4b33/4b33_pocket.pdb
REMARK  109 active torsions:
REMARK  status: ('A' for Active; 'I' for Inactive)
REMARK    1  A    between atoms: _1  and  _3
REMARK    2  A    between atoms: _3  and  _4
REMARK    3  A    between atoms: _3  and  _6
REMARK    4  A    between atoms: _9  and  _11
REMARK    5  A    between atoms: _11  and  _12
REMARK    6  A    between atoms: _11  and  _14
REMARK    7  A    between atoms: _14  and  _15
REMARK    8  A    between atoms: _15  and  _16
REMARK    9  A    between atoms: _18  and  _20
REMARK   10  A    between atoms: _20  and  _21
REMARK   11  A    between atoms: _20  and  _23
REMARK   12  A    between atoms: _23  and  _24
REMARK   13  A    between atoms: _34  and  _36
REMARK   14  A    between atoms: _36  and  _37
REMARK   15  A    between atoms: _36  and  _39
REMARK   16  A    between atoms: _39  and  _40
REMARK   17  A    between atoms: _43  and  _45
REMARK   18  A    between atoms: _45  and  _46
REMARK   19  A    between atoms: _45  and  _48
REMARK   20  A    between atoms: _48  and  _49
REMARK   21  A    between atoms: _52  and  _54
REMARK   22  A    between atoms: _54  and  _55
REMARK   23  A    between atoms: _54  and  _57
REMARK   24  A    between atoms: _57  and  _58
REMARK   25  A    between atoms: _61  and  _63
REMARK   26  A    between atoms: _63  and  _64
REMARK   27  A    between atoms: _67  and  _69
REMARK   28  A    between atoms: _69  and  _70
REMARK   29  A    between atoms: _69  and  _72
REMARK   30  A    between atoms: _72  and  _73
REMARK   31  A    between atoms: _78  and  _79
REMARK   32  A    between atoms: _81  and  _83
REMARK   33  A    between atoms: _83  and  _84
REMARK   34  A    between atoms: _87  and  _89
REMARK   35  A    between atoms: _89  and  _90
REMARK   36  A    between atoms: _89  and  _92
REMARK   37  A    between atoms: _92  and  _93
REMARK   38  A    between atoms: _93  and  _94
REMARK   39  A    between atoms: _94  and  _95
REMARK   40  A    between atoms: _104  and  _106
REMARK   41  A    between atoms: _106  and  _107
REMARK   42  A    between atoms: _106  and  _109
REMARK   43  A    between atoms: _109  and  _110
REMARK   44  A    between atoms: _115  and  _117
REMARK   45  A    between atoms: _117  and  _118
REMARK   46  A    between atoms: _117  and  _120
REMARK   47  A    between atoms: _120  and  _121
REMARK   48  A    between atoms: _121  and  _122
REMARK   49  A    between atoms: _127  and  _129
REMARK   50  A    between atoms: _129  and  _130
REMARK   51  A    between atoms: _129  and  _132
REMARK   52  A    between atoms: _132  and  _133
REMARK   53  A    between atoms: _133  and  _134
REMARK   54  A    between atoms: _136  and  _138
REMARK   55  A    between atoms: _138  and  _139
REMARK   56  A    between atoms: _138  and  _141
REMARK   57  A    between atoms: _141  and  _142
REMARK   58  A    between atoms: _145  and  _147
REMARK   59  A    between atoms: _147  and  _148
REMARK   60  A    between atoms: _147  and  _150
REMARK   61  A    between atoms: _150  and  _151
REMARK   62  A    between atoms: _154  and  _156
REMARK   63  A    between atoms: _156  and  _157
REMARK   64  A    between atoms: _156  and  _159
REMARK   65  A    between atoms: _162  and  _164
REMARK   66  A    between atoms: _164  and  _165
REMARK   67  A    between atoms: _164  and  _167
REMARK   68  A    between atoms: _167  and  _168
REMARK   69  A    between atoms: _168  and  _169
REMARK   70  A    between atoms: _174  and  _176
REMARK   71  A    between atoms: _176  and  _177
REMARK   72  A    between atoms: _176  and  _179
REMARK   73  A    between atoms: _179  and  _180
REMARK   74  A    between atoms: _180  and  _181
REMARK   75  A    between atoms: _186  and  _188
REMARK   76  A    between atoms: _188  and  _189
REMARK   77  A    between atoms: _192  and  _194
REMARK   78  A    between atoms: _194  and  _195
REMARK   79  A    between atoms: _194  and  _197
REMARK   80  A    between atoms: _197  and  _198
REMARK   81  A    between atoms: _198  and  _199
REMARK   82  A    between atoms: _202  and  _204
REMARK   83  A    between atoms: _204  and  _205
REMARK   84  A    between atoms: _204  and  _207
REMARK   85  A    between atoms: _207  and  _208
REMARK   86  A    between atoms: _211  and  _213
REMARK   87  A    between atoms: _213  and  _214
REMARK   88  A    between atoms: _213  and  _216
REMARK   89  A    between atoms: _216  and  _217
REMARK   90  A    between atoms: _217  and  _218
REMARK   91  A    between atoms: _220  and  _222
REMARK   92  A    between atoms: _222  and  _223
REMARK   93  A    between atoms: _222  and  _225
REMARK   94  A    between atoms: _225  and  _226
REMARK   95  A    between atoms: _229  and  _231
REMARK   96  A    between atoms: _231  and  _232
REMARK   97  A    between atoms: _231  and  _234
REMARK   98  A    between atoms: _234  and  _235
REMARK   99  A    between atoms: _238  and  _240
REMARK  100  A    between atoms: _240  and  _241
REMARK  101  A    between atoms: _240  and  _243
REMARK  102  A    between atoms: _243  and  _244
REMARK  103  A    between atoms: _247  and  _249
REMARK  104  A    between atoms: _249  and  _250
REMARK  105  A    between atoms: _249  and  _252
REMARK  106  A    between atoms: _255  and  _257
REMARK  107  A    between atoms: _257  and  _258
REMARK  108  A    between atoms: _257  and  _260
REMARK  109  A    between atoms: _260  and  _261
REMARK                            x       y       z     vdW  Elec       q    Type
REMARK                         _______ _______ _______ _____ _____    ______ ____
ROOT
ATOM      1  O   HOH     1      23.075   1.560  -6.842  0.00  0.00    +0.000 OA
ENDROOT
TORSDOF 0
REMARK  Name = ../refined-set-2016/4b33/4b33_pocket.pdb
REMARK  109 active torsions:
REMARK  status: ('A' for Active; 'I' for Inactive)
REMARK    1  A    between atoms: _1  and  _3
REMARK    2  A    between atoms: _3  and  _4
REMARK    3  A    between atoms: _3  and  _6
REMARK    4  A    between atoms: _9  and  _11
REMARK    5  A    between atoms: _11  and  _12
REMARK    6  A    between atoms: _11  and  _14
REMARK    7  A    between atoms: _14  and  _15
REMARK    8  A    between atoms: _15  and  _16
REMARK    9  A    between atoms: _18  and  _20
REMARK   10  A    between atoms: _20  and  _21
REMARK   11  A    between atoms: _20  and  _23
REMARK   12  A    between atoms: _23  and  _24
REMARK   13  A    between atoms: _34  and  _36
REMARK   14  A    between atoms: _36  and  _37
REMARK   15  A    between atoms: _36  and  _39
REMARK   16  A    between atoms: _39  and  _40
REMARK   17  A    between atoms: _43  and  _45
REMARK   18  A    between atoms: _45  and  _46
REMARK   19  A    between atoms: _45  and  _48
REMARK   20  A    between atoms: _48  and  _49
REMARK   21  A    between atoms: _52  and  _54
REMARK   22  A    between atoms: _54  and  _55
REMARK   23  A    between atoms: _54  and  _57
REMARK   24  A    between atoms: _57  and  _58
REMARK   25  A    between atoms: _61  and  _63
REMARK   26  A    between atoms: _63  and  _64
REMARK   27  A    between atoms: _67  and  _69
REMARK   28  A    between atoms: _69  and  _70
REMARK   29  A    between atoms: _69  and  _72
REMARK   30  A    between atoms: _72  and  _73
REMARK   31  A    between atoms: _78  and  _79
REMARK   32  A    between atoms: _81  and  _83
REMARK   33  A    between atoms: _83  and  _84
REMARK   34  A    between atoms: _87  and  _89
REMARK   35  A    between atoms: _89  and  _90
REMARK   36  A    between atoms: _89  and  _92
REMARK   37  A    between atoms: _92  and  _93
REMARK   38  A    between atoms: _93  and  _94
REMARK   39  A    between atoms: _94  and  _95
REMARK   40  A    between atoms: _104  and  _106
REMARK   41  A    between atoms: _106  and  _107
REMARK   42  A    between atoms: _106  and  _109
REMARK   43  A    between atoms: _109  and  _110
REMARK   44  A    between atoms: _115  and  _117
REMARK   45  A    between atoms: _117  and  _118
REMARK   46  A    between atoms: _117  and  _120
REMARK   47  A    between atoms: _120  and  _121
REMARK   48  A    between atoms: _121  and  _122
REMARK   49  A    between atoms: _127  and  _129
REMARK   50  A    between atoms: _129  and  _130
REMARK   51  A    between atoms: _129  and  _132
REMARK   52  A    between atoms: _132  and  _133
REMARK   53  A    between atoms: _133  and  _134
REMARK   54  A    between atoms: _136  and  _138
REMARK   55  A    between atoms: _138  and  _139
REMARK   56  A    between atoms: _138  and  _141
REMARK   57  A    between atoms: _141  and  _142
REMARK   58  A    between atoms: _145  and  _147
REMARK   59  A    between atoms: _147  and  _148
REMARK   60  A    between atoms: _147  and  _150
REMARK   61  A    between atoms: _150  and  _151
REMARK   62  A    between atoms: _154  and  _156
REMARK   63  A    between atoms: _156  and  _157
REMARK   64  A    between atoms: _156  and  _159
REMARK   65  A    between atoms: _162  and  _164
REMARK   66  A    between atoms: _164  and  _165
REMARK   67  A    between atoms: _164  and  _167
REMARK   68  A    between atoms: _167  and  _168
REMARK   69  A    between atoms: _168  and  _169
REMARK   70  A    between atoms: _174  and  _176
REMARK   71  A    between atoms: _176  and  _177
REMARK   72  A    between atoms: _176  and  _179
REMARK   73  A    between atoms: _179  and  _180
REMARK   74  A    between atoms: _180  and  _181
REMARK   75  A    between atoms: _186  and  _188
REMARK   76  A    between atoms: _188  and  _189
REMARK   77  A    between atoms: _192  and  _194
REMARK   78  A    between atoms: _194  and  _195
REMARK   79  A    between atoms: _194  and  _197
REMARK   80  A    between atoms: _197  and  _198
REMARK   81  A    between atoms: _198  and  _199
REMARK   82  A    between atoms: _202  and  _204
REMARK   83  A    between atoms: _204  and  _205
REMARK   84  A    between atoms: _204  and  _207
REMARK   85  A    between atoms: _207  and  _208
REMARK   86  A    between atoms: _211  and  _213
REMARK   87  A    between atoms: _213  and  _214
REMARK   88  A    between atoms: _213  and  _216
REMARK   89  A    between atoms: _216  and  _217
REMARK   90  A    between atoms: _217  and  _218
REMARK   91  A    between atoms: _220  and  _222
REMARK   92  A    between atoms: _222  and  _223
REMARK   93  A    between atoms: _222  and  _225
REMARK   94  A    between atoms: _225  and  _226
REMARK   95  A    between atoms: _229  and  _231
REMARK   96  A    between atoms: _231  and  _232
REMARK   97  A    between atoms: _231  and  _234
REMARK   98  A    between atoms: _234  and  _235
REMARK   99  A    between atoms: _238  and  _240
REMARK  100  A    between atoms: _240  and  _241
REMARK  101  A    between atoms: _240  and  _243
REMARK  102  A    between atoms: _243  and  _244
REMARK  103  A    between atoms: _247  and  _249
REMARK  104  A    between atoms: _249  and  _250
REMARK  105  A    between atoms: _249  and  _252
REMARK  106  A    between atoms: _255  and  _257
REMARK  107  A    between atoms: _257  and  _258
REMARK  108  A    between atoms: _257  and  _260
REMARK  109  A    between atoms: _260  and  _261
REMARK                            x       y       z     vdW  Elec       q    Type
REMARK                         _______ _______ _______ _____ _____    ______ ____
ROOT
ATOM      1  O   HOH     1      23.070   3.729  -5.595  0.00  0.00    +0.000 OA
ENDROOT
TORSDOF 0
REMARK  Name = ../refined-set-2016/4b33/4b33_pocket.pdb
REMARK  109 active torsions:
REMARK  status: ('A' for Active; 'I' for Inactive)
REMARK    1  A    between atoms: _1  and  _3
REMARK    2  A    between atoms: _3  and  _4
REMARK    3  A    between atoms: _3  and  _6
REMARK    4  A    between atoms: _9  and  _11
REMARK    5  A    between atoms: _11  and  _12
REMARK    6  A    between atoms: _11  and  _14
REMARK    7  A    between atoms: _14  and  _15
REMARK    8  A    between atoms: _15  and  _16
REMARK    9  A    between atoms: _18  and  _20
REMARK   10  A    between atoms: _20  and  _21
REMARK   11  A    between atoms: _20  and  _23
REMARK   12  A    between atoms: _23  and  _24
REMARK   13  A    between atoms: _34  and  _36
REMARK   14  A    between atoms: _36  and  _37
REMARK   15  A    between atoms: _36  and  _39
REMARK   16  A    between atoms: _39  and  _40
REMARK   17  A    between atoms: _43  and  _45
REMARK   18  A    between atoms: _45  and  _46
REMARK   19  A    between atoms: _45  and  _48
REMARK   20  A    between atoms: _48  and  _49
REMARK   21  A    between atoms: _52  and  _54
REMARK   22  A    between atoms: _54  and  _55
REMARK   23  A    between atoms: _54  and  _57
REMARK   24  A    between atoms: _57  and  _58
REMARK   25  A    between atoms: _61  and  _63
REMARK   26  A    between atoms: _63  and  _64
REMARK   27  A    between atoms: _67  and  _69
REMARK   28  A    between atoms: _69  and  _70
REMARK   29  A    between atoms: _69  and  _72
REMARK   30  A    between atoms: _72  and  _73
REMARK   31  A    between atoms: _78  and  _79
REMARK   32  A    between atoms: _81  and  _83
REMARK   33  A    between atoms: _83  and  _84
REMARK   34  A    between atoms: _87  and  _89
REMARK   35  A    between atoms: _89  and  _90
REMARK   36  A    between atoms: _89  and  _92
REMARK   37  A    between atoms: _92  and  _93
REMARK   38  A    between atoms: _93  and  _94
REMARK   39  A    between atoms: _94  and  _95
REMARK   40  A    between atoms: _104  and  _106
REMARK   41  A    between atoms: _106  and  _107
REMARK   42  A    between atoms: _106  and  _109
REMARK   43  A    between atoms: _109  and  _110
REMARK   44  A    between atoms: _115  and  _117
REMARK   45  A    between atoms: _117  and  _118
REMARK   46  A    between atoms: _117  and  _120
REMARK   47  A    between atoms: _120  and  _121
REMARK   48  A    between atoms: _121  and  _122
REMARK   49  A    between atoms: _127  and  _129
REMARK   50  A    between atoms: _129  and  _130
REMARK   51  A    between atoms: _129  and  _132
REMARK   52  A    between atoms: _132  and  _133
REMARK   53  A    between atoms: _133  and  _134
REMARK   54  A    between atoms: _136  and  _138
REMARK   55  A    between atoms: _138  and  _139
REMARK   56  A    between atoms: _138  and  _141
REMARK   57  A    between atoms: _141  and  _142
REMARK   58  A    between atoms: _145  and  _147
REMARK   59  A    between atoms: _147  and  _148
REMARK   60  A    between atoms: _147  and  _150
REMARK   61  A    between atoms: _150  and  _151
REMARK   62  A    between atoms: _154  and  _156
REMARK   63  A    between atoms: _156  and  _157
REMARK   64  A    between atoms: _156  and  _159
REMARK   65  A    between atoms: _162  and  _164
REMARK   66  A    between atoms: _164  and  _165
REMARK   67  A    between atoms: _164  and  _167
REMARK   68  A    between atoms: _167  and  _168
REMARK   69  A    between atoms: _168  and  _169
REMARK   70  A    between atoms: _174  and  _176
REMARK   71  A    between atoms: _176  and  _177
REMARK   72  A    between atoms: _176  and  _179
REMARK   73  A    between atoms: _179  and  _180
REMARK   74  A    between atoms: _180  and  _181
REMARK   75  A    between atoms: _186  and  _188
REMARK   76  A    between atoms: _188  and  _189
REMARK   77  A    between atoms: _192  and  _194
REMARK   78  A    between atoms: _194  and  _195
REMARK   79  A    between atoms: _194  and  _197
REMARK   80  A    between atoms: _197  and  _198
REMARK   81  A    between atoms: _198  and  _199
REMARK   82  A    between atoms: _202  and  _204
REMARK   83  A    between atoms: _204  and  _205
REMARK   84  A    between atoms: _204  and  _207
REMARK   85  A    between atoms: _207  and  _208
REMARK   86  A    between atoms: _211  and  _213
REMARK   87  A    between atoms: _213  and  _214
REMARK   88  A    between atoms: _213  and  _216
REMARK   89  A    between atoms: _216  and  _217
REMARK   90  A    between atoms: _217  and  _218
REMARK   91  A    between atoms: _220  and  _222
REMARK   92  A    between atoms: _222  and  _223
REMARK   93  A    between atoms: _222  and  _225
REMARK   94  A    between atoms: _225  and  _226
REMARK   95  A    between atoms: _229  and  _231
REMARK   96  A    between atoms: _231  and  _232
REMARK   97  A    between atoms: _231  and  _234
REMARK   98  A    between atoms: _234  and  _235
REMARK   99  A    between atoms: _238  and  _240
REMARK  100  A    between atoms: _240  and  _241
REMARK  101  A    between atoms: _240  and  _243
REMARK  102  A    between atoms: _243  and  _244
REMARK  103  A    between atoms: _247  and  _249
REMARK  104  A    between atoms: _249  and  _250
REMARK  105  A    between atoms: _249  and  _252
REMARK  106  A    between atoms: _255  and  _257
REMARK  107  A    between atoms: _257  and  _258
REMARK  108  A    between atoms: _257  and  _260
REMARK  109  A    between atoms: _260  and  _261
REMARK                            x       y       z     vdW  Elec       q    Type
REMARK                         _______ _______ _______ _____ _____    ______ ____
ROOT
ATOM      1  O   HOH     1      22.213   9.556  -7.507  0.00  0.00    +0.000 OA
ENDROOT
TORSDOF 0
REMARK  Name = ../refined-set-2016/4b33/4b33_pocket.pdb
REMARK  109 active torsions:
REMARK  status: ('A' for Active; 'I' for Inactive)
REMARK    1  A    between atoms: _1  and  _3
REMARK    2  A    between atoms: _3  and  _4
REMARK    3  A    between atoms: _3  and  _6
REMARK    4  A    between atoms: _9  and  _11
REMARK    5  A    between atoms: _11  and  _12
REMARK    6  A    between atoms: _11  and  _14
REMARK    7  A    between atoms: _14  and  _15
REMARK    8  A    between atoms: _15  and  _16
REMARK    9  A    between atoms: _18  and  _20
REMARK   10  A    between atoms: _20  and  _21
REMARK   11  A    between atoms: _20  and  _23
REMARK   12  A    between atoms: _23  and  _24
REMARK   13  A    between atoms: _34  and  _36
REMARK   14  A    between atoms: _36  and  _37
REMARK   15  A    between atoms: _36  and  _39
REMARK   16  A    between atoms: _39  and  _40
REMARK   17  A    between atoms: _43  and  _45
REMARK   18  A    between atoms: _45  and  _46
REMARK   19  A    between atoms: _45  and  _48
REMARK   20  A    between atoms: _48  and  _49
REMARK   21  A    between atoms: _52  and  _54
REMARK   22  A    between atoms: _54  and  _55
REMARK   23  A    between atoms: _54  and  _57
REMARK   24  A    between atoms: _57  and  _58
REMARK   25  A    between atoms: _61  and  _63
REMARK   26  A    between atoms: _63  and  _64
REMARK   27  A    between atoms: _67  and  _69
REMARK   28  A    between atoms: _69  and  _70
REMARK   29  A    between atoms: _69  and  _72
REMARK   30  A    between atoms: _72  and  _73
REMARK   31  A    between atoms: _78  and  _79
REMARK   32  A    between atoms: _81  and  _83
REMARK   33  A    between atoms: _83  and  _84
REMARK   34  A    between atoms: _87  and  _89
REMARK   35  A    between atoms: _89  and  _90
REMARK   36  A    between atoms: _89  and  _92
REMARK   37  A    between atoms: _92  and  _93
REMARK   38  A    between atoms: _93  and  _94
REMARK   39  A    between atoms: _94  and  _95
REMARK   40  A    between atoms: _104  and  _106
REMARK   41  A    between atoms: _106  and  _107
REMARK   42  A    between atoms: _106  and  _109
REMARK   43  A    between atoms: _109  and  _110
REMARK   44  A    between atoms: _115  and  _117
REMARK   45  A    between atoms: _117  and  _118
REMARK   46  A    between atoms: _117  and  _120
REMARK   47  A    between atoms: _120  and  _121
REMARK   48  A    between atoms: _121  and  _122
REMARK   49  A    between atoms: _127  and  _129
REMARK   50  A    between atoms: _129  and  _130
REMARK   51  A    between atoms: _129  and  _132
REMARK   52  A    between atoms: _132  and  _133
REMARK   53  A    between atoms: _133  and  _134
REMARK   54  A    between atoms: _136  and  _138
REMARK   55  A    between atoms: _138  and  _139
REMARK   56  A    between atoms: _138  and  _141
REMARK   57  A    between atoms: _141  and  _142
REMARK   58  A    between atoms: _145  and  _147
REMARK   59  A    between atoms: _147  and  _148
REMARK   60  A    between atoms: _147  and  _150
REMARK   61  A    between atoms: _150  and  _151
REMARK   62  A    between atoms: _154  and  _156
REMARK   63  A    between atoms: _156  and  _157
REMARK   64  A    between atoms: _156  and  _159
REMARK   65  A    between atoms: _162  and  _164
REMARK   66  A    between atoms: _164  and  _165
REMARK   67  A    between atoms: _164  and  _167
REMARK   68  A    between atoms: _167  and  _168
REMARK   69  A    between atoms: _168  and  _169
REMARK   70  A    between atoms: _174  and  _176
REMARK   71  A    between atoms: _176  and  _177
REMARK   72  A    between atoms: _176  and  _179
REMARK   73  A    between atoms: _179  and  _180
REMARK   74  A    between atoms: _180  and  _181
REMARK   75  A    between atoms: _186  and  _188
REMARK   76  A    between atoms: _188  and  _189
REMARK   77  A    between atoms: _192  and  _194
REMARK   78  A    between atoms: _194  and  _195
REMARK   79  A    between atoms: _194  and  _197
REMARK   80  A    between atoms: _197  and  _198
REMARK   81  A    between atoms: _198  and  _199
REMARK   82  A    between atoms: _202  and  _204
REMARK   83  A    between atoms: _204  and  _205
REMARK   84  A    between atoms: _204  and  _207
REMARK   85  A    between atoms: _207  and  _208
REMARK   86  A    between atoms: _211  and  _213
REMARK   87  A    between atoms: _213  and  _214
REMARK   88  A    between atoms: _213  and  _216
REMARK   89  A    between atoms: _216  and  _217
REMARK   90  A    between atoms: _217  and  _218
REMARK   91  A    between atoms: _220  and  _222
REMARK   92  A    between atoms: _222  and  _223
REMARK   93  A    between atoms: _222  and  _225
REMARK   94  A    between atoms: _225  and  _226
REMARK   95  A    between atoms: _229  and  _231
REMARK   96  A    between atoms: _231  and  _232
REMARK   97  A    between atoms: _231  and  _234
REMARK   98  A    between atoms: _234  and  _235
REMARK   99  A    between atoms: _238  and  _240
REMARK  100  A    between atoms: _240  and  _241
REMARK  101  A    between atoms: _240  and  _243
REMARK  102  A    between atoms: _243  and  _244
REMARK  103  A    between atoms: _247  and  _249
REMARK  104  A    between atoms: _249  and  _250
REMARK  105  A    between atoms: _249  and  _252
REMARK  106  A    between atoms: _255  and  _257
REMARK  107  A    between atoms: _257  and  _258
REMARK  108  A    between atoms: _257  and  _260
REMARK  109  A    between atoms: _260  and  _261
REMARK                            x       y       z     vdW  Elec       q    Type
REMARK                         _______ _______ _______ _____ _____    ______ ____
ROOT
ATOM      1  O   HOH     1      23.406  -1.295  -5.406  0.00  0.00    +0.000 OA
ENDROOT
TORSDOF 0
REMARK  Name = ../refined-set-2016/4b33/4b33_pocket.pdb
REMARK  109 active torsions:
REMARK  status: ('A' for Active; 'I' for Inactive)
REMARK    1  A    between atoms: _1  and  _3
REMARK    2  A    between atoms: _3  and  _4
REMARK    3  A    between atoms: _3  and  _6
REMARK    4  A    between atoms: _9  and  _11
REMARK    5  A    between atoms: _11  and  _12
REMARK    6  A    between atoms: _11  and  _14
REMARK    7  A    between atoms: _14  and  _15
REMARK    8  A    between atoms: _15  and  _16
REMARK    9  A    between atoms: _18  and  _20
REMARK   10  A    between atoms: _20  and  _21
REMARK   11  A    between atoms: _20  and  _23
REMARK   12  A    between atoms: _23  and  _24
REMARK   13  A    between atoms: _34  and  _36
REMARK   14  A    between atoms: _36  and  _37
REMARK   15  A    between atoms: _36  and  _39
REMARK   16  A    between atoms: _39  and  _40
REMARK   17  A    between atoms: _43  and  _45
REMARK   18  A    between atoms: _45  and  _46
REMARK   19  A    between atoms: _45  and  _48
REMARK   20  A    between atoms: _48  and  _49
REMARK   21  A    between atoms: _52  and  _54
REMARK   22  A    between atoms: _54  and  _55
REMARK   23  A    between atoms: _54  and  _57
REMARK   24  A    between atoms: _57  and  _58
REMARK   25  A    between atoms: _61  and  _63
REMARK   26  A    between atoms: _63  and  _64
REMARK   27  A    between atoms: _67  and  _69
REMARK   28  A    between atoms: _69  and  _70
REMARK   29  A    between atoms: _69  and  _72
REMARK   30  A    between atoms: _72  and  _73
REMARK   31  A    between atoms: _78  and  _79
REMARK   32  A    between atoms: _81  and  _83
REMARK   33  A    between atoms: _83  and  _84
REMARK   34  A    between atoms: _87  and  _89
REMARK   35  A    between atoms: _89  and  _90
REMARK   36  A    between atoms: _89  and  _92
REMARK   37  A    between atoms: _92  and  _93
REMARK   38  A    between atoms: _93  and  _94
REMARK   39  A    between atoms: _94  and  _95
REMARK   40  A    between atoms: _104  and  _106
REMARK   41  A    between atoms: _106  and  _107
REMARK   42  A    between atoms: _106  and  _109
REMARK   43  A    between atoms: _109  and  _110
REMARK   44  A    between atoms: _115  and  _117
REMARK   45  A    between atoms: _117  and  _118
REMARK   46  A    between atoms: _117  and  _120
REMARK   47  A    between atoms: _120  and  _121
REMARK   48  A    between atoms: _121  and  _122
REMARK   49  A    between atoms: _127  and  _129
REMARK   50  A    between atoms: _129  and  _130
REMARK   51  A    between atoms: _129  and  _132
REMARK   52  A    between atoms: _132  and  _133
REMARK   53  A    between atoms: _133  and  _134
REMARK   54  A    between atoms: _136  and  _138
REMARK   55  A    between atoms: _138  and  _139
REMARK   56  A    between atoms: _138  and  _141
REMARK   57  A    between atoms: _141  and  _142
REMARK   58  A    between atoms: _145  and  _147
REMARK   59  A    between atoms: _147  and  _148
REMARK   60  A    between atoms: _147  and  _150
REMARK   61  A    between atoms: _150  and  _151
REMARK   62  A    between atoms: _154  and  _156
REMARK   63  A    between atoms: _156  and  _157
REMARK   64  A    between atoms: _156  and  _159
REMARK   65  A    between atoms: _162  and  _164
REMARK   66  A    between atoms: _164  and  _165
REMARK   67  A    between atoms: _164  and  _167
REMARK   68  A    between atoms: _167  and  _168
REMARK   69  A    between atoms: _168  and  _169
REMARK   70  A    between atoms: _174  and  _176
REMARK   71  A    between atoms: _176  and  _177
REMARK   72  A    between atoms: _176  and  _179
REMARK   73  A    between atoms: _179  and  _180
REMARK   74  A    between atoms: _180  and  _181
REMARK   75  A    between atoms: _186  and  _188
REMARK   76  A    between atoms: _188  and  _189
REMARK   77  A    between atoms: _192  and  _194
REMARK   78  A    between atoms: _194  and  _195
REMARK   79  A    between atoms: _194  and  _197
REMARK   80  A    between atoms: _197  and  _198
REMARK   81  A    between atoms: _198  and  _199
REMARK   82  A    between atoms: _202  and  _204
REMARK   83  A    between atoms: _204  and  _205
REMARK   84  A    between atoms: _204  and  _207
REMARK   85  A    between atoms: _207  and  _208
REMARK   86  A    between atoms: _211  and  _213
REMARK   87  A    between atoms: _213  and  _214
REMARK   88  A    between atoms: _213  and  _216
REMARK   89  A    between atoms: _216  and  _217
REMARK   90  A    between atoms: _217  and  _218
REMARK   91  A    between atoms: _220  and  _222
REMARK   92  A    between atoms: _222  and  _223
REMARK   93  A    between atoms: _222  and  _225
REMARK   94  A    between atoms: _225  and  _226
REMARK   95  A    between atoms: _229  and  _231
REMARK   96  A    between atoms: _231  and  _232
REMARK   97  A    between atoms: _231  and  _234
REMARK   98  A    between atoms: _234  and  _235
REMARK   99  A    between atoms: _238  and  _240
REMARK  100  A    between atoms: _240  and  _241
REMARK  101  A    between atoms: _240  and  _243
REMARK  102  A    between atoms: _243  and  _244
REMARK  103  A    between atoms: _247  and  _249
REMARK  104  A    between atoms: _249  and  _250
REMARK  105  A    between atoms: _249  and  _252
REMARK  106  A    between atoms: _255  and  _257
REMARK  107  A    between atoms: _257  and  _258
REMARK  108  A    between atoms: _257  and  _260
REMARK  109  A    between atoms: _260  and  _261
REMARK                            x       y       z     vdW  Elec       q    Type
REMARK                         _______ _______ _______ _____ _____    ______ ____
ROOT
ATOM      1  O   HOH     1      23.573   0.052  -3.348  0.00  0.00    +0.000 OA
ENDROOT
TORSDOF 0
REMARK  Name = ../refined-set-2016/4b33/4b33_pocket.pdb
REMARK  109 active torsions:
REMARK  status: ('A' for Active; 'I' for Inactive)
REMARK    1  A    between atoms: _1  and  _3
REMARK    2  A    between atoms: _3  and  _4
REMARK    3  A    between atoms: _3  and  _6
REMARK    4  A    between atoms: _9  and  _11
REMARK    5  A    between atoms: _11  and  _12
REMARK    6  A    between atoms: _11  and  _14
REMARK    7  A    between atoms: _14  and  _15
REMARK    8  A    between atoms: _15  and  _16
REMARK    9  A    between atoms: _18  and  _20
REMARK   10  A    between atoms: _20  and  _21
REMARK   11  A    between atoms: _20  and  _23
REMARK   12  A    between atoms: _23  and  _24
REMARK   13  A    between atoms: _34  and  _36
REMARK   14  A    between atoms: _36  and  _37
REMARK   15  A    between atoms: _36  and  _39
REMARK   16  A    between atoms: _39  and  _40
REMARK   17  A    between atoms: _43  and  _45
REMARK   18  A    between atoms: _45  and  _46
REMARK   19  A    between atoms: _45  and  _48
REMARK   20  A    between atoms: _48  and  _49
REMARK   21  A    between atoms: _52  and  _54
REMARK   22  A    between atoms: _54  and  _55
REMARK   23  A    between atoms: _54  and  _57
REMARK   24  A    between atoms: _57  and  _58
REMARK   25  A    between atoms: _61  and  _63
REMARK   26  A    between atoms: _63  and  _64
REMARK   27  A    between atoms: _67  and  _69
REMARK   28  A    between atoms: _69  and  _70
REMARK   29  A    between atoms: _69  and  _72
REMARK   30  A    between atoms: _72  and  _73
REMARK   31  A    between atoms: _78  and  _79
REMARK   32  A    between atoms: _81  and  _83
REMARK   33  A    between atoms: _83  and  _84
REMARK   34  A    between atoms: _87  and  _89
REMARK   35  A    between atoms: _89  and  _90
REMARK   36  A    between atoms: _89  and  _92
REMARK   37  A    between atoms: _92  and  _93
REMARK   38  A    between atoms: _93  and  _94
REMARK   39  A    between atoms: _94  and  _95
REMARK   40  A    between atoms: _104  and  _106
REMARK   41  A    between atoms: _106  and  _107
REMARK   42  A    between atoms: _106  and  _109
REMARK   43  A    between atoms: _109  and  _110
REMARK   44  A    between atoms: _115  and  _117
REMARK   45  A    between atoms: _117  and  _118
REMARK   46  A    between atoms: _117  and  _120
REMARK   47  A    between atoms: _120  and  _121
REMARK   48  A    between atoms: _121  and  _122
REMARK   49  A    between atoms: _127  and  _129
REMARK   50  A    between atoms: _129  and  _130
REMARK   51  A    between atoms: _129  and  _132
REMARK   52  A    between atoms: _132  and  _133
REMARK   53  A    between atoms: _133  and  _134
REMARK   54  A    between atoms: _136  and  _138
REMARK   55  A    between atoms: _138  and  _139
REMARK   56  A    between atoms: _138  and  _141
REMARK   57  A    between atoms: _141  and  _142
REMARK   58  A    between atoms: _145  and  _147
REMARK   59  A    between atoms: _147  and  _148
REMARK   60  A    between atoms: _147  and  _150
REMARK   61  A    between atoms: _150  and  _151
REMARK   62  A    between atoms: _154  and  _156
REMARK   63  A    between atoms: _156  and  _157
REMARK   64  A    between atoms: _156  and  _159
REMARK   65  A    between atoms: _162  and  _164
REMARK   66  A    between atoms: _164  and  _165
REMARK   67  A    between atoms: _164  and  _167
REMARK   68  A    between atoms: _167  and  _168
REMARK   69  A    between atoms: _168  and  _169
REMARK   70  A    between atoms: _174  and  _176
REMARK   71  A    between atoms: _176  and  _177
REMARK   72  A    between atoms: _176  and  _179
REMARK   73  A    between atoms: _179  and  _180
REMARK   74  A    between atoms: _180  and  _181
REMARK   75  A    between atoms: _186  and  _188
REMARK   76  A    between atoms: _188  and  _189
REMARK   77  A    between atoms: _192  and  _194
REMARK   78  A    between atoms: _194  and  _195
REMARK   79  A    between atoms: _194  and  _197
REMARK   80  A    between atoms: _197  and  _198
REMARK   81  A    between atoms: _198  and  _199
REMARK   82  A    between atoms: _202  and  _204
REMARK   83  A    between atoms: _204  and  _205
REMARK   84  A    between atoms: _204  and  _207
REMARK   85  A    between atoms: _207  and  _208
REMARK   86  A    between atoms: _211  and  _213
REMARK   87  A    between atoms: _213  and  _214
REMARK   88  A    between atoms: _213  and  _216
REMARK   89  A    between atoms: _216  and  _217
REMARK   90  A    between atoms: _217  and  _218
REMARK   91  A    between atoms: _220  and  _222
REMARK   92  A    between atoms: _222  and  _223
REMARK   93  A    between atoms: _222  and  _225
REMARK   94  A    between atoms: _225  and  _226
REMARK   95  A    between atoms: _229  and  _231
REMARK   96  A    between atoms: _231  and  _232
REMARK   97  A    between atoms: _231  and  _234
REMARK   98  A    between atoms: _234  and  _235
REMARK   99  A    between atoms: _238  and  _240
REMARK  100  A    between atoms: _240  and  _241
REMARK  101  A    between atoms: _240  and  _243
REMARK  102  A    between atoms: _243  and  _244
REMARK  103  A    between atoms: _247  and  _249
REMARK  104  A    between atoms: _249  and  _250
REMARK  105  A    between atoms: _249  and  _252
REMARK  106  A    between atoms: _255  and  _257
REMARK  107  A    between atoms: _257  and  _258
REMARK  108  A    between atoms: _257  and  _260
REMARK  109  A    between atoms: _260  and  _261
REMARK                            x       y       z     vdW  Elec       q    Type
REMARK                         _______ _______ _______ _____ _____    ______ ____
ROOT
ATOM      1  O   HOH     1      24.004   2.657  -3.301  0.00  0.00    +0.000 OA
ENDROOT
TORSDOF 0
REMARK  Name = ../refined-set-2016/4b33/4b33_pocket.pdb
REMARK  109 active torsions:
REMARK  status: ('A' for Active; 'I' for Inactive)
REMARK    1  A    between atoms: _1  and  _3
REMARK    2  A    between atoms: _3  and  _4
REMARK    3  A    between atoms: _3  and  _6
REMARK    4  A    between atoms: _9  and  _11
REMARK    5  A    between atoms: _11  and  _12
REMARK    6  A    between atoms: _11  and  _14
REMARK    7  A    between atoms: _14  and  _15
REMARK    8  A    between atoms: _15  and  _16
REMARK    9  A    between atoms: _18  and  _20
REMARK   10  A    between atoms: _20  and  _21
REMARK   11  A    between atoms: _20  and  _23
REMARK   12  A    between atoms: _23  and  _24
REMARK   13  A    between atoms: _34  and  _36
REMARK   14  A    between atoms: _36  and  _37
REMARK   15  A    between atoms: _36  and  _39
REMARK   16  A    between atoms: _39  and  _40
REMARK   17  A    between atoms: _43  and  _45
REMARK   18  A    between atoms: _45  and  _46
REMARK   19  A    between atoms: _45  and  _48
REMARK   20  A    between atoms: _48  and  _49
REMARK   21  A    between atoms: _52  and  _54
REMARK   22  A    between atoms: _54  and  _55
REMARK   23  A    between atoms: _54  and  _57
REMARK   24  A    between atoms: _57  and  _58
REMARK   25  A    between atoms: _61  and  _63
REMARK   26  A    between atoms: _63  and  _64
REMARK   27  A    between atoms: _67  and  _69
REMARK   28  A    between atoms: _69  and  _70
REMARK   29  A    between atoms: _69  and  _72
REMARK   30  A    between atoms: _72  and  _73
REMARK   31  A    between atoms: _78  and  _79
REMARK   32  A    between atoms: _81  and  _83
REMARK   33  A    between atoms: _83  and  _84
REMARK   34  A    between atoms: _87  and  _89
REMARK   35  A    between atoms: _89  and  _90
REMARK   36  A    between atoms: _89  and  _92
REMARK   37  A    between atoms: _92  and  _93
REMARK   38  A    between atoms: _93  and  _94
REMARK   39  A    between atoms: _94  and  _95
REMARK   40  A    between atoms: _104  and  _106
REMARK   41  A    between atoms: _106  and  _107
REMARK   42  A    between atoms: _106  and  _109
REMARK   43  A    between atoms: _109  and  _110
REMARK   44  A    between atoms: _115  and  _117
REMARK   45  A    between atoms: _117  and  _118
REMARK   46  A    between atoms: _117  and  _120
REMARK   47  A    between atoms: _120  and  _121
REMARK   48  A    between atoms: _121  and  _122
REMARK   49  A    between atoms: _127  and  _129
REMARK   50  A    between atoms: _129  and  _130
REMARK   51  A    between atoms: _129  and  _132
REMARK   52  A    between atoms: _132  and  _133
REMARK   53  A    between atoms: _133  and  _134
REMARK   54  A    between atoms: _136  and  _138
REMARK   55  A    between atoms: _138  and  _139
REMARK   56  A    between atoms: _138  and  _141
REMARK   57  A    between atoms: _141  and  _142
REMARK   58  A    between atoms: _145  and  _147
REMARK   59  A    between atoms: _147  and  _148
REMARK   60  A    between atoms: _147  and  _150
REMARK   61  A    between atoms: _150  and  _151
REMARK   62  A    between atoms: _154  and  _156
REMARK   63  A    between atoms: _156  and  _157
REMARK   64  A    between atoms: _156  and  _159
REMARK   65  A    between atoms: _162  and  _164
REMARK   66  A    between atoms: _164  and  _165
REMARK   67  A    between atoms: _164  and  _167
REMARK   68  A    between atoms: _167  and  _168
REMARK   69  A    between atoms: _168  and  _169
REMARK   70  A    between atoms: _174  and  _176
REMARK   71  A    between atoms: _176  and  _177
REMARK   72  A    between atoms: _176  and  _179
REMARK   73  A    between atoms: _179  and  _180
REMARK   74  A    between atoms: _180  and  _181
REMARK   75  A    between atoms: _186  and  _188
REMARK   76  A    between atoms: _188  and  _189
REMARK   77  A    between atoms: _192  and  _194
REMARK   78  A    between atoms: _194  and  _195
REMARK   79  A    between atoms: _194  and  _197
REMARK   80  A    between atoms: _197  and  _198
REMARK   81  A    between atoms: _198  and  _199
REMARK   82  A    between atoms: _202  and  _204
REMARK   83  A    between atoms: _204  and  _205
REMARK   84  A    between atoms: _204  and  _207
REMARK   85  A    between atoms: _207  and  _208
REMARK   86  A    between atoms: _211  and  _213
REMARK   87  A    between atoms: _213  and  _214
REMARK   88  A    between atoms: _213  and  _216
REMARK   89  A    between atoms: _216  and  _217
REMARK   90  A    between atoms: _217  and  _218
REMARK   91  A    between atoms: _220  and  _222
REMARK   92  A    between atoms: _222  and  _223
REMARK   93  A    between atoms: _222  and  _225
REMARK   94  A    between atoms: _225  and  _226
REMARK   95  A    between atoms: _229  and  _231
REMARK   96  A    between atoms: _231  and  _232
REMARK   97  A    between atoms: _231  and  _234
REMARK   98  A    between atoms: _234  and  _235
REMARK   99  A    between atoms: _238  and  _240
REMARK  100  A    between atoms: _240  and  _241
REMARK  101  A    between atoms: _240  and  _243
REMARK  102  A    between atoms: _243  and  _244
REMARK  103  A    between atoms: _247  and  _249
REMARK  104  A    between atoms: _249  and  _250
REMARK  105  A    between atoms: _249  and  _252
REMARK  106  A    between atoms: _255  and  _257
REMARK  107  A    between atoms: _257  and  _258
REMARK  108  A    between atoms: _257  and  _260
REMARK  109  A    between atoms: _260  and  _261
REMARK                            x       y       z     vdW  Elec       q    Type
REMARK                         _______ _______ _______ _____ _____    ______ ____
ROOT
ATOM      1  O   HOH     1      23.488  12.678   1.080  0.00  0.00    +0.000 OA
ENDROOT
TORSDOF 0
REMARK  Name = ../refined-set-2016/4b33/4b33_pocket.pdb
REMARK  109 active torsions:
REMARK  status: ('A' for Active; 'I' for Inactive)
REMARK    1  A    between atoms: _1  and  _3
REMARK    2  A    between atoms: _3  and  _4
REMARK    3  A    between atoms: _3  and  _6
REMARK    4  A    between atoms: _9  and  _11
REMARK    5  A    between atoms: _11  and  _12
REMARK    6  A    between atoms: _11  and  _14
REMARK    7  A    between atoms: _14  and  _15
REMARK    8  A    between atoms: _15  and  _16
REMARK    9  A    between atoms: _18  and  _20
REMARK   10  A    between atoms: _20  and  _21
REMARK   11  A    between atoms: _20  and  _23
REMARK   12  A    between atoms: _23  and  _24
REMARK   13  A    between atoms: _34  and  _36
REMARK   14  A    between atoms: _36  and  _37
REMARK   15  A    between atoms: _36  and  _39
REMARK   16  A    between atoms: _39  and  _40
REMARK   17  A    between atoms: _43  and  _45
REMARK   18  A    between atoms: _45  and  _46
REMARK   19  A    between atoms: _45  and  _48
REMARK   20  A    between atoms: _48  and  _49
REMARK   21  A    between atoms: _52  and  _54
REMARK   22  A    between atoms: _54  and  _55
REMARK   23  A    between atoms: _54  and  _57
REMARK   24  A    between atoms: _57  and  _58
REMARK   25  A    between atoms: _61  and  _63
REMARK   26  A    between atoms: _63  and  _64
REMARK   27  A    between atoms: _67  and  _69
REMARK   28  A    between atoms: _69  and  _70
REMARK   29  A    between atoms: _69  and  _72
REMARK   30  A    between atoms: _72  and  _73
REMARK   31  A    between atoms: _78  and  _79
REMARK   32  A    between atoms: _81  and  _83
REMARK   33  A    between atoms: _83  and  _84
REMARK   34  A    between atoms: _87  and  _89
REMARK   35  A    between atoms: _89  and  _90
REMARK   36  A    between atoms: _89  and  _92
REMARK   37  A    between atoms: _92  and  _93
REMARK   38  A    between atoms: _93  and  _94
REMARK   39  A    between atoms: _94  and  _95
REMARK   40  A    between atoms: _104  and  _106
REMARK   41  A    between atoms: _106  and  _107
REMARK   42  A    between atoms: _106  and  _109
REMARK   43  A    between atoms: _109  and  _110
REMARK   44  A    between atoms: _115  and  _117
REMARK   45  A    between atoms: _117  and  _118
REMARK   46  A    between atoms: _117  and  _120
REMARK   47  A    between atoms: _120  and  _121
REMARK   48  A    between atoms: _121  and  _122
REMARK   49  A    between atoms: _127  and  _129
REMARK   50  A    between atoms: _129  and  _130
REMARK   51  A    between atoms: _129  and  _132
REMARK   52  A    between atoms: _132  and  _133
REMARK   53  A    between atoms: _133  and  _134
REMARK   54  A    between atoms: _136  and  _138
REMARK   55  A    between atoms: _138  and  _139
REMARK   56  A    between atoms: _138  and  _141
REMARK   57  A    between atoms: _141  and  _142
REMARK   58  A    between atoms: _145  and  _147
REMARK   59  A    between atoms: _147  and  _148
REMARK   60  A    between atoms: _147  and  _150
REMARK   61  A    between atoms: _150  and  _151
REMARK   62  A    between atoms: _154  and  _156
REMARK   63  A    between atoms: _156  and  _157
REMARK   64  A    between atoms: _156  and  _159
REMARK   65  A    between atoms: _162  and  _164
REMARK   66  A    between atoms: _164  and  _165
REMARK   67  A    between atoms: _164  and  _167
REMARK   68  A    between atoms: _167  and  _168
REMARK   69  A    between atoms: _168  and  _169
REMARK   70  A    between atoms: _174  and  _176
REMARK   71  A    between atoms: _176  and  _177
REMARK   72  A    between atoms: _176  and  _179
REMARK   73  A    between atoms: _179  and  _180
REMARK   74  A    between atoms: _180  and  _181
REMARK   75  A    between atoms: _186  and  _188
REMARK   76  A    between atoms: _188  and  _189
REMARK   77  A    between atoms: _192  and  _194
REMARK   78  A    between atoms: _194  and  _195
REMARK   79  A    between atoms: _194  and  _197
REMARK   80  A    between atoms: _197  and  _198
REMARK   81  A    between atoms: _198  and  _199
REMARK   82  A    between atoms: _202  and  _204
REMARK   83  A    between atoms: _204  and  _205
REMARK   84  A    between atoms: _204  and  _207
REMARK   85  A    between atoms: _207  and  _208
REMARK   86  A    between atoms: _211  and  _213
REMARK   87  A    between atoms: _213  and  _214
REMARK   88  A    between atoms: _213  and  _216
REMARK   89  A    between atoms: _216  and  _217
REMARK   90  A    between atoms: _217  and  _218
REMARK   91  A    between atoms: _220  and  _222
REMARK   92  A    between atoms: _222  and  _223
REMARK   93  A    between atoms: _222  and  _225
REMARK   94  A    between atoms: _225  and  _226
REMARK   95  A    between atoms: _229  and  _231
REMARK   96  A    between atoms: _231  and  _232
REMARK   97  A    between atoms: _231  and  _234
REMARK   98  A    between atoms: _234  and  _235
REMARK   99  A    between atoms: _238  and  _240
REMARK  100  A    between atoms: _240  and  _241
REMARK  101  A    between atoms: _240  and  _243
REMARK  102  A    between atoms: _243  and  _244
REMARK  103  A    between atoms: _247  and  _249
REMARK  104  A    between atoms: _249  and  _250
REMARK  105  A    between atoms: _249  and  _252
REMARK  106  A    between atoms: _255  and  _257
REMARK  107  A    between atoms: _257  and  _258
REMARK  108  A    between atoms: _257  and  _260
REMARK  109  A    between atoms: _260  and  _261
REMARK                            x       y       z     vdW  Elec       q    Type
REMARK                         _______ _______ _______ _____ _____    ______ ____
ROOT
ATOM      1  O   HOH     1      25.226   9.782   1.919  0.00  0.00    +0.000 OA
ENDROOT
TORSDOF 0
REMARK  Name = ../refined-set-2016/4b33/4b33_pocket.pdb
REMARK  109 active torsions:
REMARK  status: ('A' for Active; 'I' for Inactive)
REMARK    1  A    between atoms: _1  and  _3
REMARK    2  A    between atoms: _3  and  _4
REMARK    3  A    between atoms: _3  and  _6
REMARK    4  A    between atoms: _9  and  _11
REMARK    5  A    between atoms: _11  and  _12
REMARK    6  A    between atoms: _11  and  _14
REMARK    7  A    between atoms: _14  and  _15
REMARK    8  A    between atoms: _15  and  _16
REMARK    9  A    between atoms: _18  and  _20
REMARK   10  A    between atoms: _20  and  _21
REMARK   11  A    between atoms: _20  and  _23
REMARK   12  A    between atoms: _23  and  _24
REMARK   13  A    between atoms: _34  and  _36
REMARK   14  A    between atoms: _36  and  _37
REMARK   15  A    between atoms: _36  and  _39
REMARK   16  A    between atoms: _39  and  _40
REMARK   17  A    between atoms: _43  and  _45
REMARK   18  A    between atoms: _45  and  _46
REMARK   19  A    between atoms: _45  and  _48
REMARK   20  A    between atoms: _48  and  _49
REMARK   21  A    between atoms: _52  and  _54
REMARK   22  A    between atoms: _54  and  _55
REMARK   23  A    between atoms: _54  and  _57
REMARK   24  A    between atoms: _57  and  _58
REMARK   25  A    between atoms: _61  and  _63
REMARK   26  A    between atoms: _63  and  _64
REMARK   27  A    between atoms: _67  and  _69
REMARK   28  A    between atoms: _69  and  _70
REMARK   29  A    between atoms: _69  and  _72
REMARK   30  A    between atoms: _72  and  _73
REMARK   31  A    between atoms: _78  and  _79
REMARK   32  A    between atoms: _81  and  _83
REMARK   33  A    between atoms: _83  and  _84
REMARK   34  A    between atoms: _87  and  _89
REMARK   35  A    between atoms: _89  and  _90
REMARK   36  A    between atoms: _89  and  _92
REMARK   37  A    between atoms: _92  and  _93
REMARK   38  A    between atoms: _93  and  _94
REMARK   39  A    between atoms: _94  and  _95
REMARK   40  A    between atoms: _104  and  _106
REMARK   41  A    between atoms: _106  and  _107
REMARK   42  A    between atoms: _106  and  _109
REMARK   43  A    between atoms: _109  and  _110
REMARK   44  A    between atoms: _115  and  _117
REMARK   45  A    between atoms: _117  and  _118
REMARK   46  A    between atoms: _117  and  _120
REMARK   47  A    between atoms: _120  and  _121
REMARK   48  A    between atoms: _121  and  _122
REMARK   49  A    between atoms: _127  and  _129
REMARK   50  A    between atoms: _129  and  _130
REMARK   51  A    between atoms: _129  and  _132
REMARK   52  A    between atoms: _132  and  _133
REMARK   53  A    between atoms: _133  and  _134
REMARK   54  A    between atoms: _136  and  _138
REMARK   55  A    between atoms: _138  and  _139
REMARK   56  A    between atoms: _138  and  _141
REMARK   57  A    between atoms: _141  and  _142
REMARK   58  A    between atoms: _145  and  _147
REMARK   59  A    between atoms: _147  and  _148
REMARK   60  A    between atoms: _147  and  _150
REMARK   61  A    between atoms: _150  and  _151
REMARK   62  A    between atoms: _154  and  _156
REMARK   63  A    between atoms: _156  and  _157
REMARK   64  A    between atoms: _156  and  _159
REMARK   65  A    between atoms: _162  and  _164
REMARK   66  A    between atoms: _164  and  _165
REMARK   67  A    between atoms: _164  and  _167
REMARK   68  A    between atoms: _167  and  _168
REMARK   69  A    between atoms: _168  and  _169
REMARK   70  A    between atoms: _174  and  _176
REMARK   71  A    between atoms: _176  and  _177
REMARK   72  A    between atoms: _176  and  _179
REMARK   73  A    between atoms: _179  and  _180
REMARK   74  A    between atoms: _180  and  _181
REMARK   75  A    between atoms: _186  and  _188
REMARK   76  A    between atoms: _188  and  _189
REMARK   77  A    between atoms: _192  and  _194
REMARK   78  A    between atoms: _194  and  _195
REMARK   79  A    between atoms: _194  and  _197
REMARK   80  A    between atoms: _197  and  _198
REMARK   81  A    between atoms: _198  and  _199
REMARK   82  A    between atoms: _202  and  _204
REMARK   83  A    between atoms: _204  and  _205
REMARK   84  A    between atoms: _204  and  _207
REMARK   85  A    between atoms: _207  and  _208
REMARK   86  A    between atoms: _211  and  _213
REMARK   87  A    between atoms: _213  and  _214
REMARK   88  A    between atoms: _213  and  _216
REMARK   89  A    between atoms: _216  and  _217
REMARK   90  A    between atoms: _217  and  _218
REMARK   91  A    between atoms: _220  and  _222
REMARK   92  A    between atoms: _222  and  _223
REMARK   93  A    between atoms: _222  and  _225
REMARK   94  A    between atoms: _225  and  _226
REMARK   95  A    between atoms: _229  and  _231
REMARK   96  A    between atoms: _231  and  _232
REMARK   97  A    between atoms: _231  and  _234
REMARK   98  A    between atoms: _234  and  _235
REMARK   99  A    between atoms: _238  and  _240
REMARK  100  A    between atoms: _240  and  _241
REMARK  101  A    between atoms: _240  and  _243
REMARK  102  A    between atoms: _243  and  _244
REMARK  103  A    between atoms: _247  and  _249
REMARK  104  A    between atoms: _249  and  _250
REMARK  105  A    between atoms: _249  and  _252
REMARK  106  A    between atoms: _255  and  _257
REMARK  107  A    between atoms: _257  and  _258
REMARK  108  A    between atoms: _257  and  _260
REMARK  109  A    between atoms: _260  and  _261
REMARK                            x       y       z     vdW  Elec       q    Type
REMARK                         _______ _______ _______ _____ _____    ______ ____
ROOT
ATOM      1  O   HOH     1      19.885   9.320  -6.520  0.00  0.00    +0.000 OA
ENDROOT
TORSDOF 0
REMARK  Name = ../refined-set-2016/4b33/4b33_pocket.pdb
REMARK  109 active torsions:
REMARK  status: ('A' for Active; 'I' for Inactive)
REMARK    1  A    between atoms: _1  and  _3
REMARK    2  A    between atoms: _3  and  _4
REMARK    3  A    between atoms: _3  and  _6
REMARK    4  A    between atoms: _9  and  _11
REMARK    5  A    between atoms: _11  and  _12
REMARK    6  A    between atoms: _11  and  _14
REMARK    7  A    between atoms: _14  and  _15
REMARK    8  A    between atoms: _15  and  _16
REMARK    9  A    between atoms: _18  and  _20
REMARK   10  A    between atoms: _20  and  _21
REMARK   11  A    between atoms: _20  and  _23
REMARK   12  A    between atoms: _23  and  _24
REMARK   13  A    between atoms: _34  and  _36
REMARK   14  A    between atoms: _36  and  _37
REMARK   15  A    between atoms: _36  and  _39
REMARK   16  A    between atoms: _39  and  _40
REMARK   17  A    between atoms: _43  and  _45
REMARK   18  A    between atoms: _45  and  _46
REMARK   19  A    between atoms: _45  and  _48
REMARK   20  A    between atoms: _48  and  _49
REMARK   21  A    between atoms: _52  and  _54
REMARK   22  A    between atoms: _54  and  _55
REMARK   23  A    between atoms: _54  and  _57
REMARK   24  A    between atoms: _57  and  _58
REMARK   25  A    between atoms: _61  and  _63
REMARK   26  A    between atoms: _63  and  _64
REMARK   27  A    between atoms: _67  and  _69
REMARK   28  A    between atoms: _69  and  _70
REMARK   29  A    between atoms: _69  and  _72
REMARK   30  A    between atoms: _72  and  _73
REMARK   31  A    between atoms: _78  and  _79
REMARK   32  A    between atoms: _81  and  _83
REMARK   33  A    between atoms: _83  and  _84
REMARK   34  A    between atoms: _87  and  _89
REMARK   35  A    between atoms: _89  and  _90
REMARK   36  A    between atoms: _89  and  _92
REMARK   37  A    between atoms: _92  and  _93
REMARK   38  A    between atoms: _93  and  _94
REMARK   39  A    between atoms: _94  and  _95
REMARK   40  A    between atoms: _104  and  _106
REMARK   41  A    between atoms: _106  and  _107
REMARK   42  A    between atoms: _106  and  _109
REMARK   43  A    between atoms: _109  and  _110
REMARK   44  A    between atoms: _115  and  _117
REMARK   45  A    between atoms: _117  and  _118
REMARK   46  A    between atoms: _117  and  _120
REMARK   47  A    between atoms: _120  and  _121
REMARK   48  A    between atoms: _121  and  _122
REMARK   49  A    between atoms: _127  and  _129
REMARK   50  A    between atoms: _129  and  _130
REMARK   51  A    between atoms: _129  and  _132
REMARK   52  A    between atoms: _132  and  _133
REMARK   53  A    between atoms: _133  and  _134
REMARK   54  A    between atoms: _136  and  _138
REMARK   55  A    between atoms: _138  and  _139
REMARK   56  A    between atoms: _138  and  _141
REMARK   57  A    between atoms: _141  and  _142
REMARK   58  A    between atoms: _145  and  _147
REMARK   59  A    between atoms: _147  and  _148
REMARK   60  A    between atoms: _147  and  _150
REMARK   61  A    between atoms: _150  and  _151
REMARK   62  A    between atoms: _154  and  _156
REMARK   63  A    between atoms: _156  and  _157
REMARK   64  A    between atoms: _156  and  _159
REMARK   65  A    between atoms: _162  and  _164
REMARK   66  A    between atoms: _164  and  _165
REMARK   67  A    between atoms: _164  and  _167
REMARK   68  A    between atoms: _167  and  _168
REMARK   69  A    between atoms: _168  and  _169
REMARK   70  A    between atoms: _174  and  _176
REMARK   71  A    between atoms: _176  and  _177
REMARK   72  A    between atoms: _176  and  _179
REMARK   73  A    between atoms: _179  and  _180
REMARK   74  A    between atoms: _180  and  _181
REMARK   75  A    between atoms: _186  and  _188
REMARK   76  A    between atoms: _188  and  _189
REMARK   77  A    between atoms: _192  and  _194
REMARK   78  A    between atoms: _194  and  _195
REMARK   79  A    between atoms: _194  and  _197
REMARK   80  A    between atoms: _197  and  _198
REMARK   81  A    between atoms: _198  and  _199
REMARK   82  A    between atoms: _202  and  _204
REMARK   83  A    between atoms: _204  and  _205
REMARK   84  A    between atoms: _204  and  _207
REMARK   85  A    between atoms: _207  and  _208
REMARK   86  A    between atoms: _211  and  _213
REMARK   87  A    between atoms: _213  and  _214
REMARK   88  A    between atoms: _213  and  _216
REMARK   89  A    between atoms: _216  and  _217
REMARK   90  A    between atoms: _217  and  _218
REMARK   91  A    between atoms: _220  and  _222
REMARK   92  A    between atoms: _222  and  _223
REMARK   93  A    between atoms: _222  and  _225
REMARK   94  A    between atoms: _225  and  _226
REMARK   95  A    between atoms: _229  and  _231
REMARK   96  A    between atoms: _231  and  _232
REMARK   97  A    between atoms: _231  and  _234
REMARK   98  A    between atoms: _234  and  _235
REMARK   99  A    between atoms: _238  and  _240
REMARK  100  A    between atoms: _240  and  _241
REMARK  101  A    between atoms: _240  and  _243
REMARK  102  A    between atoms: _243  and  _244
REMARK  103  A    between atoms: _247  and  _249
REMARK  104  A    between atoms: _249  and  _250
REMARK  105  A    between atoms: _249  and  _252
REMARK  106  A    between atoms: _255  and  _257
REMARK  107  A    between atoms: _257  and  _258
REMARK  108  A    between atoms: _257  and  _260
REMARK  109  A    between atoms: _260  and  _261
REMARK                            x       y       z     vdW  Elec       q    Type
REMARK                         _______ _______ _______ _____ _____    ______ ____
ROOT
ATOM      1  O   HOH     1      24.482  10.100  -0.762  0.00  0.00    +0.000 OA
ENDROOT
TORSDOF 0
REMARK  Name = ../refined-set-2016/4b33/4b33_pocket.pdb
REMARK  109 active torsions:
REMARK  status: ('A' for Active; 'I' for Inactive)
REMARK    1  A    between atoms: _1  and  _3
REMARK    2  A    between atoms: _3  and  _4
REMARK    3  A    between atoms: _3  and  _6
REMARK    4  A    between atoms: _9  and  _11
REMARK    5  A    between atoms: _11  and  _12
REMARK    6  A    between atoms: _11  and  _14
REMARK    7  A    between atoms: _14  and  _15
REMARK    8  A    between atoms: _15  and  _16
REMARK    9  A    between atoms: _18  and  _20
REMARK   10  A    between atoms: _20  and  _21
REMARK   11  A    between atoms: _20  and  _23
REMARK   12  A    between atoms: _23  and  _24
REMARK   13  A    between atoms: _34  and  _36
REMARK   14  A    between atoms: _36  and  _37
REMARK   15  A    between atoms: _36  and  _39
REMARK   16  A    between atoms: _39  and  _40
REMARK   17  A    between atoms: _43  and  _45
REMARK   18  A    between atoms: _45  and  _46
REMARK   19  A    between atoms: _45  and  _48
REMARK   20  A    between atoms: _48  and  _49
REMARK   21  A    between atoms: _52  and  _54
REMARK   22  A    between atoms: _54  and  _55
REMARK   23  A    between atoms: _54  and  _57
REMARK   24  A    between atoms: _57  and  _58
REMARK   25  A    between atoms: _61  and  _63
REMARK   26  A    between atoms: _63  and  _64
REMARK   27  A    between atoms: _67  and  _69
REMARK   28  A    between atoms: _69  and  _70
REMARK   29  A    between atoms: _69  and  _72
REMARK   30  A    between atoms: _72  and  _73
REMARK   31  A    between atoms: _78  and  _79
REMARK   32  A    between atoms: _81  and  _83
REMARK   33  A    between atoms: _83  and  _84
REMARK   34  A    between atoms: _87  and  _89
REMARK   35  A    between atoms: _89  and  _90
REMARK   36  A    between atoms: _89  and  _92
REMARK   37  A    between atoms: _92  and  _93
REMARK   38  A    between atoms: _93  and  _94
REMARK   39  A    between atoms: _94  and  _95
REMARK   40  A    between atoms: _104  and  _106
REMARK   41  A    between atoms: _106  and  _107
REMARK   42  A    between atoms: _106  and  _109
REMARK   43  A    between atoms: _109  and  _110
REMARK   44  A    between atoms: _115  and  _117
REMARK   45  A    between atoms: _117  and  _118
REMARK   46  A    between atoms: _117  and  _120
REMARK   47  A    between atoms: _120  and  _121
REMARK   48  A    between atoms: _121  and  _122
REMARK   49  A    between atoms: _127  and  _129
REMARK   50  A    between atoms: _129  and  _130
REMARK   51  A    between atoms: _129  and  _132
REMARK   52  A    between atoms: _132  and  _133
REMARK   53  A    between atoms: _133  and  _134
REMARK   54  A    between atoms: _136  and  _138
REMARK   55  A    between atoms: _138  and  _139
REMARK   56  A    between atoms: _138  and  _141
REMARK   57  A    between atoms: _141  and  _142
REMARK   58  A    between atoms: _145  and  _147
REMARK   59  A    between atoms: _147  and  _148
REMARK   60  A    between atoms: _147  and  _150
REMARK   61  A    between atoms: _150  and  _151
REMARK   62  A    between atoms: _154  and  _156
REMARK   63  A    between atoms: _156  and  _157
REMARK   64  A    between atoms: _156  and  _159
REMARK   65  A    between atoms: _162  and  _164
REMARK   66  A    between atoms: _164  and  _165
REMARK   67  A    between atoms: _164  and  _167
REMARK   68  A    between atoms: _167  and  _168
REMARK   69  A    between atoms: _168  and  _169
REMARK   70  A    between atoms: _174  and  _176
REMARK   71  A    between atoms: _176  and  _177
REMARK   72  A    between atoms: _176  and  _179
REMARK   73  A    between atoms: _179  and  _180
REMARK   74  A    between atoms: _180  and  _181
REMARK   75  A    between atoms: _186  and  _188
REMARK   76  A    between atoms: _188  and  _189
REMARK   77  A    between atoms: _192  and  _194
REMARK   78  A    between atoms: _194  and  _195
REMARK   79  A    between atoms: _194  and  _197
REMARK   80  A    between atoms: _197  and  _198
REMARK   81  A    between atoms: _198  and  _199
REMARK   82  A    between atoms: _202  and  _204
REMARK   83  A    between atoms: _204  and  _205
REMARK   84  A    between atoms: _204  and  _207
REMARK   85  A    between atoms: _207  and  _208
REMARK   86  A    between atoms: _211  and  _213
REMARK   87  A    between atoms: _213  and  _214
REMARK   88  A    between atoms: _213  and  _216
REMARK   89  A    between atoms: _216  and  _217
REMARK   90  A    between atoms: _217  and  _218
REMARK   91  A    between atoms: _220  and  _222
REMARK   92  A    between atoms: _222  and  _223
REMARK   93  A    between atoms: _222  and  _225
REMARK   94  A    between atoms: _225  and  _226
REMARK   95  A    between atoms: _229  and  _231
REMARK   96  A    between atoms: _231  and  _232
REMARK   97  A    between atoms: _231  and  _234
REMARK   98  A    between atoms: _234  and  _235
REMARK   99  A    between atoms: _238  and  _240
REMARK  100  A    between atoms: _240  and  _241
REMARK  101  A    between atoms: _240  and  _243
REMARK  102  A    between atoms: _243  and  _244
REMARK  103  A    between atoms: _247  and  _249
REMARK  104  A    between atoms: _249  and  _250
REMARK  105  A    between atoms: _249  and  _252
REMARK  106  A    between atoms: _255  and  _257
REMARK  107  A    between atoms: _257  and  _258
REMARK  108  A    between atoms: _257  and  _260
REMARK  109  A    between atoms: _260  and  _261
REMARK                            x       y       z     vdW  Elec       q    Type
REMARK                         _______ _______ _______ _____ _____    ______ ____
ROOT
ATOM      1  O   HOH     1      21.047  16.135  -5.521  0.00  0.00    +0.000 OA
ENDROOT
TORSDOF 0
