REMARK  Name = ../refined-set-2016/1b38/1b38_pocket.pdb
REMARK  238 active torsions:
REMARK  status: ('A' for Active; 'I' for Inactive)
REMARK    1  A    between atoms: _1  and  _3
REMARK    2  A    between atoms: _3  and  _4
REMARK    3  A    between atoms: _3  and  _6
REMARK    4  A    between atoms: _6  and  _7
REMARK    5  A    between atoms: _7  and  _8
REMARK    6  A    between atoms: _8  and  _9
REMARK    7  A    between atoms: _9  and  _10
REMARK    8  A    between atoms: _14  and  _16
REMARK    9  A    between atoms: _16  and  _17
REMARK   10  A    between atoms: _16  and  _19
REMARK   11  A    between atoms: _19  and  _20
REMARK   12  A    between atoms: _23  and  _25
REMARK   13  A    between atoms: _25  and  _26
REMARK   14  A    between atoms: _28  and  _30
REMARK   15  A    between atoms: _30  and  _31
REMARK   16  A    between atoms: _30  and  _33
REMARK   17  A    between atoms: _33  and  _34
REMARK   18  A    between atoms: _34  and  _35
REMARK   19  A    between atoms: _38  and  _40
REMARK   20  A    between atoms: _40  and  _41
REMARK   21  A    between atoms: _43  and  _45
REMARK   22  A    between atoms: _45  and  _46
REMARK   23  A    between atoms: _45  and  _48
REMARK   24  A    between atoms: _48  and  _49
REMARK   25  A    between atoms: _52  and  _54
REMARK   26  A    between atoms: _54  and  _55
REMARK   27  A    between atoms: _54  and  _57
REMARK   28  A    between atoms: _57  and  _58
REMARK   29  A    between atoms: _63  and  _64
REMARK   30  A    between atoms: _66  and  _68
REMARK   31  A    between atoms: _68  and  _69
REMARK   32  A    between atoms: _71  and  _73
REMARK   33  A    between atoms: _73  and  _74
REMARK   34  A    between atoms: _73  and  _76
REMARK   35  A    between atoms: _79  and  _81
REMARK   36  A    between atoms: _81  and  _82
REMARK   37  A    between atoms: _81  and  _84
REMARK   38  A    between atoms: _87  and  _89
REMARK   39  A    between atoms: _89  and  _90
REMARK   40  A    between atoms: _89  and  _92
REMARK   41  A    between atoms: _92  and  _93
REMARK   42  A    between atoms: _98  and  _99
REMARK   43  A    between atoms: _101  and  _103
REMARK   44  A    between atoms: _103  and  _104
REMARK   45  A    between atoms: _103  and  _106
REMARK   46  A    between atoms: _106  and  _107
REMARK   47  A    between atoms: _107  and  _108
REMARK   48  A    between atoms: _108  and  _109
REMARK   49  A    between atoms: _109  and  _110
REMARK   50  A    between atoms: _114  and  _116
REMARK   51  A    between atoms: _116  and  _117
REMARK   52  A    between atoms: _120  and  _122
REMARK   53  A    between atoms: _122  and  _123
REMARK   54  A    between atoms: _122  and  _125
REMARK   55  A    between atoms: _128  and  _130
REMARK   56  A    between atoms: _130  and  _131
REMARK   57  A    between atoms: _134  and  _136
REMARK   58  A    between atoms: _136  and  _137
REMARK   59  A    between atoms: _136  and  _139
REMARK   60  A    between atoms: _139  and  _140
REMARK   61  A    between atoms: _143  and  _145
REMARK   62  A    between atoms: _145  and  _146
REMARK   63  A    between atoms: _145  and  _148
REMARK   64  A    between atoms: _148  and  _149
REMARK   65  A    between atoms: _149  and  _150
REMARK   66  A    between atoms: _150  and  _151
REMARK   67  A    between atoms: _151  and  _152
REMARK   68  A    between atoms: _156  and  _158
REMARK   69  A    between atoms: _158  and  _159
REMARK   70  A    between atoms: _158  and  _161
REMARK   71  A    between atoms: _161  and  _162
REMARK   72  A    between atoms: _162  and  _163
REMARK   73  A    between atoms: _163  and  _164
REMARK   74  A    between atoms: _164  and  _165
REMARK   75  A    between atoms: _169  and  _171
REMARK   76  A    between atoms: _171  and  _172
REMARK   77  A    between atoms: _171  and  _174
REMARK   78  A    between atoms: _174  and  _175
REMARK   79  A    between atoms: _178  and  _180
REMARK   80  A    between atoms: _180  and  _181
REMARK   81  A    between atoms: _180  and  _183
REMARK   82  A    between atoms: _186  and  _188
REMARK   83  A    between atoms: _188  and  _189
REMARK   84  A    between atoms: _188  and  _191
REMARK   85  A    between atoms: _191  and  _192
REMARK   86  A    between atoms: _192  and  _193
REMARK   87  A    between atoms: _193  and  _194
REMARK   88  A    between atoms: _194  and  _195
REMARK   89  A    between atoms: _199  and  _201
REMARK   90  A    between atoms: _201  and  _202
REMARK   91  A    between atoms: _201  and  _204
REMARK   92  A    between atoms: _204  and  _205
REMARK   93  A    between atoms: _208  and  _210
REMARK   94  A    between atoms: _210  and  _211
REMARK   95  A    between atoms: _210  and  _213
REMARK   96  A    between atoms: _213  and  _214
REMARK   97  A    between atoms: _217  and  _219
REMARK   98  A    between atoms: _219  and  _220
REMARK   99  A    between atoms: _219  and  _222
REMARK  100  A    between atoms: _225  and  _227
REMARK  101  A    between atoms: _227  and  _228
REMARK  102  A    between atoms: _227  and  _230
REMARK  103  A    between atoms: _230  and  _231
REMARK  104  A    between atoms: _237  and  _239
REMARK  105  A    between atoms: _239  and  _240
REMARK  106  A    between atoms: _239  and  _242
REMARK  107  A    between atoms: _242  and  _243
REMARK  108  A    between atoms: _243  and  _244
REMARK  109  A    between atoms: _247  and  _249
REMARK  110  A    between atoms: _249  and  _250
REMARK  111  A    between atoms: _249  and  _252
REMARK  112  A    between atoms: _252  and  _253
REMARK  113  A    between atoms: _259  and  _261
REMARK  114  A    between atoms: _261  and  _262
REMARK  115  A    between atoms: _261  and  _264
REMARK  116  A    between atoms: _264  and  _265
REMARK  117  A    between atoms: _268  and  _270
REMARK  118  A    between atoms: _270  and  _271
REMARK  119  A    between atoms: _270  and  _273
REMARK  120  A    between atoms: _273  and  _274
REMARK  121  A    between atoms: _279  and  _281
REMARK  122  A    between atoms: _281  and  _282
REMARK  123  A    between atoms: _281  and  _284
REMARK  124  A    between atoms: _284  and  _285
REMARK  125  A    between atoms: _285  and  _286
REMARK  126  A    between atoms: _291  and  _293
REMARK  127  A    between atoms: _293  and  _294
REMARK  128  A    between atoms: _293  and  _296
REMARK  129  A    between atoms: _296  and  _297
REMARK  130  A    between atoms: _300  and  _302
REMARK  131  A    between atoms: _302  and  _303
REMARK  132  A    between atoms: _302  and  _305
REMARK  133  A    between atoms: _305  and  _306
REMARK  134  A    between atoms: _309  and  _311
REMARK  135  A    between atoms: _311  and  _312
REMARK  136  A    between atoms: _311  and  _314
REMARK  137  A    between atoms: _314  and  _315
REMARK  138  A    between atoms: _315  and  _316
REMARK  139  A    between atoms: _316  and  _317
REMARK  140  A    between atoms: _317  and  _318
REMARK  141  A    between atoms: _322  and  _324
REMARK  142  A    between atoms: _324  and  _325
REMARK  143  A    between atoms: _324  and  _327
REMARK  144  A    between atoms: _327  and  _328
REMARK  145  A    between atoms: _328  and  _329
REMARK  146  A    between atoms: _329  and  _330
REMARK  147  A    between atoms: _330  and  _331
REMARK  148  A    between atoms: _335  and  _337
REMARK  149  A    between atoms: _337  and  _338
REMARK  150  A    between atoms: _337  and  _340
REMARK  151  A    between atoms: _340  and  _341
REMARK  152  A    between atoms: _346  and  _348
REMARK  153  A    between atoms: _348  and  _349
REMARK  154  A    between atoms: _348  and  _351
REMARK  155  A    between atoms: _351  and  _352
REMARK  156  A    between atoms: _355  and  _357
REMARK  157  A    between atoms: _357  and  _358
REMARK  158  A    between atoms: _357  and  _360
REMARK  159  A    between atoms: _360  and  _361
REMARK  160  A    between atoms: _364  and  _366
REMARK  161  A    between atoms: _366  and  _367
REMARK  162  A    between atoms: _366  and  _369
REMARK  163  A    between atoms: _369  and  _370
REMARK  164  A    between atoms: _370  and  _371
REMARK  165  A    between atoms: _371  and  _372
REMARK  166  A    between atoms: _372  and  _373
REMARK  167  A    between atoms: _378  and  _379
REMARK  168  A    between atoms: _384  and  _386
REMARK  169  A    between atoms: _386  and  _387
REMARK  170  A    between atoms: _386  and  _389
REMARK  171  A    between atoms: _389  and  _390
REMARK  172  A    between atoms: _390  and  _391
REMARK  173  A    between atoms: _396  and  _398
REMARK  174  A    between atoms: _398  and  _399
REMARK  175  A    between atoms: _398  and  _401
REMARK  176  A    between atoms: _401  and  _402
REMARK  177  A    between atoms: _407  and  _409
REMARK  178  A    between atoms: _409  and  _410
REMARK  179  A    between atoms: _409  and  _412
REMARK  180  A    between atoms: _412  and  _413
REMARK  181  A    between atoms: _416  and  _418
REMARK  182  A    between atoms: _418  and  _419
REMARK  183  A    between atoms: _418  and  _421
REMARK  184  A    between atoms: _421  and  _422
REMARK  185  A    between atoms: _425  and  _427
REMARK  186  A    between atoms: _427  and  _428
REMARK  187  A    between atoms: _427  and  _430
REMARK  188  A    between atoms: _430  and  _431
REMARK  189  A    between atoms: _434  and  _436
REMARK  190  A    between atoms: _436  and  _437
REMARK  191  A    between atoms: _436  and  _439
REMARK  192  A    between atoms: _439  and  _440
REMARK  193  A    between atoms: _443  and  _445
REMARK  194  A    between atoms: _445  and  _446
REMARK  195  A    between atoms: _449  and  _451
REMARK  196  A    between atoms: _451  and  _452
REMARK  197  A    between atoms: _451  and  _454
REMARK  198  A    between atoms: _454  and  _455
REMARK  199  A    between atoms: _455  and  _457
REMARK  200  A    between atoms: _457  and  MG_558
REMARK  201  A    between atoms: _458  and  _460
REMARK  202  A    between atoms: _460  and  _461
REMARK  203  A    between atoms: _460  and  _463
REMARK  204  A    between atoms: _463  and  _464
REMARK  205  A    between atoms: _470  and  _472
REMARK  206  A    between atoms: _472  and  _473
REMARK  207  A    between atoms: _472  and  _475
REMARK  208  A    between atoms: _475  and  _476
REMARK  209  A    between atoms: _479  and  _481
REMARK  210  A    between atoms: _481  and  _482
REMARK  211  A    between atoms: _485  and  _487
REMARK  212  A    between atoms: _487  and  _488
REMARK  213  A    between atoms: _487  and  _490
REMARK  214  A    between atoms: _494  and  _495
REMARK  215  A    between atoms: _500  and  _502
REMARK  216  A    between atoms: _502  and  _503
REMARK  217  A    between atoms: _502  and  _505
REMARK  218  A    between atoms: _505  and  _506
REMARK  219  A    between atoms: _509  and  _511
REMARK  220  A    between atoms: _511  and  _512
REMARK  221  A    between atoms: _511  and  _514
REMARK  222  A    between atoms: _514  and  _515
REMARK  223  A    between atoms: _520  and  _521
REMARK  224  A    between atoms: _523  and  _525
REMARK  225  A    between atoms: _525  and  _526
REMARK  226  A    between atoms: _525  and  _528
REMARK  227  A    between atoms: _528  and  _529
REMARK  228  A    between atoms: _529  and  _530
REMARK  229  A    between atoms: _533  and  _535
REMARK  230  A    between atoms: _535  and  _536
REMARK  231  A    between atoms: _535  and  _538
REMARK  232  A    between atoms: _541  and  _543
REMARK  233  A    between atoms: _543  and  _544
REMARK  234  A    between atoms: _543  and  _546
REMARK  235  A    between atoms: _549  and  _551
REMARK  236  A    between atoms: _551  and  _552
REMARK  237  A    between atoms: _551  and  _554
REMARK  238  A    between atoms: _554  and  _555
REMARK                            x       y       z     vdW  Elec       q    Type
REMARK                         _______ _______ _______ _____ _____    ______ ____
ROOT
ATOM      1  CA  TYR A   7     -10.015  23.950  13.066  0.00  0.00    +0.153 C 
ENDROOT
BRANCH   1   2
ATOM      2  C   TYR A   7     -10.148  23.618  11.605  0.00  0.00    +0.241 C 
ATOM      3  O   TYR A   7     -11.310  23.671  11.172  0.00  0.00    -0.273 OA
ATOM      4  N   GLY A   8      -9.067  23.301  10.897  0.00  0.00    -0.295 N 
ATOM      5  H   GLY A   8      -8.121  23.290  11.330  0.00  0.00    +0.150 HD
BRANCH   4   6
ATOM      6  CA  GLY A   8      -9.259  22.971   9.498  0.00  0.00    +0.176 C 
BRANCH   6   7
ATOM      7  C   GLY A   8      -7.943  22.876   8.754  0.00  0.00    +0.243 C 
ATOM      8  O   GLY A   8      -6.892  22.821   9.360  0.00  0.00    -0.273 OA
ATOM      9  N   VAL A   9      -7.981  22.792   7.430  0.00  0.00    -0.297 N 
ATOM     10  H   VAL A   9      -8.895  22.874   6.942  0.00  0.00    +0.150 HD
BRANCH   9  11
ATOM     11  CA  VAL A   9      -6.773  22.588   6.647  0.00  0.00    +0.149 C 
BRANCH  11  12
ATOM     12  C   VAL A   9      -6.213  23.909   6.145  0.00  0.00    +0.241 C 
ATOM     13  N   VAL A  10      -4.899  24.011   5.982  0.00  0.00    -0.297 N 
ATOM     14  H   VAL A  10      -4.291  23.188   6.169  0.00  0.00    +0.150 HD
ATOM     15  O   VAL A   9      -7.007  24.810   5.897  0.00  0.00    -0.273 OA
BRANCH  13  16
ATOM     16  CA  VAL A  10      -4.297  25.277   5.540  0.00  0.00    +0.149 C 
BRANCH  16  17
ATOM     17  C   VAL A  10      -3.596  25.000   4.212  0.00  0.00    +0.241 C 
ATOM     18  O   VAL A  10      -2.776  24.066   4.064  0.00  0.00    -0.273 OA
ATOM     19  N   TYR A  11      -3.929  25.865   3.270  0.00  0.00    -0.297 N 
ATOM     20  H   TYR A  11      -4.646  26.594   3.458  0.00  0.00    +0.150 HD
BRANCH  19  21
ATOM     21  CA  TYR A  11      -3.286  25.789   1.970  0.00  0.00    +0.153 C 
BRANCH  21  22
ATOM     22  C   TYR A  11      -2.464  27.044   1.639  0.00  0.00    +0.241 C 
ATOM     23  O   TYR A  11      -2.871  28.168   1.909  0.00  0.00    -0.273 OA
ATOM     24  N   LYS A  12      -1.370  26.829   0.923  0.00  0.00    -0.297 N 
ATOM     25  H   LYS A  12      -1.014  25.858   0.814  0.00  0.00    +0.150 HD
BRANCH  24  26
ATOM     26  CA  LYS A  12      -0.665  27.916   0.292  0.00  0.00    +0.149 C 
BRANCH  26  27
ATOM     27  C   LYS A  12      -1.506  28.246  -0.963  0.00  0.00    +0.241 C 
ATOM     28  N   ALA A  13      -1.884  29.493  -1.235  0.00  0.00    -0.298 N 
ATOM     29  H   ALA A  13      -1.574  30.287  -0.639  0.00  0.00    +0.150 HD
ATOM     30  O   LYS A  12      -1.866  27.305  -1.665  0.00  0.00    -0.273 OA
BRANCH  28  31
ATOM     31  CA  ALA A  13      -2.749  29.718  -2.398  0.00  0.00    +0.137 C 
ATOM     32  CB  ALA A  13      -4.224  29.833  -2.025  0.00  0.00    +0.030 C 
BRANCH  31  33
ATOM     33  C   ALA A  13      -2.308  31.013  -3.057  0.00  0.00    +0.227 C 
ATOM     34  O   ALA A  13      -1.614  31.745  -2.371  0.00  0.00    -0.286 OA
ENDBRANCH  31  33
ENDBRANCH  28  31
ENDBRANCH  26  27
BRANCH  26  35
ATOM     35  CB  LYS A  12       0.755  27.537  -0.149  0.00  0.00    +0.029 C 
BRANCH  35  36
ATOM     36  CG  LYS A  12       1.594  28.716  -0.543  0.00  0.00    +0.000 C 
BRANCH  36  37
ATOM     37  CD  LYS A  12       3.062  28.362  -0.866  0.00  0.00    -0.024 C 
BRANCH  37  38
ATOM     38  CE  LYS A  12       3.848  29.617  -1.267  0.00  0.00    -0.086 C 
BRANCH  38  39
ATOM     39  NZ  LYS A  12       5.314  29.252  -1.534  0.00  0.00    +0.380 N 
ATOM     40  HZ1 LYS A  12       5.731  28.846  -0.672  0.00  0.00    -0.089 HD
ATOM     41  HZ2 LYS A  12       5.839  30.108  -1.805  0.00  0.00    -0.089 HD
ATOM     42  HZ3 LYS A  12       5.362  28.556  -2.305  0.00  0.00    -0.089 HD
ENDBRANCH  38  39
ENDBRANCH  37  38
ENDBRANCH  36  37
ENDBRANCH  35  36
ENDBRANCH  26  35
ENDBRANCH  24  26
ENDBRANCH  21  22
BRANCH  21  43
ATOM     43  CB  TYR A  11      -4.301  25.622   0.821  0.00  0.00    +0.055 C 
BRANCH  43  44
ATOM     44  CG  TYR A  11      -5.169  24.363   0.911  0.00  0.00    -0.020 A 
ATOM     45  CD2 TYR A  11      -6.323  24.396   1.662  0.00  0.00    -0.001 A 
ATOM     46  CE2 TYR A  11      -7.149  23.277   1.749  0.00  0.00    +0.036 A 
ATOM     47  CZ  TYR A  11      -6.800  22.118   1.090  0.00  0.00    +0.134 A 
ATOM     48  CE1 TYR A  11      -5.665  22.085   0.324  0.00  0.00    +0.036 A 
ATOM     49  CD1 TYR A  11      -4.862  23.199   0.250  0.00  0.00    -0.001 A 
BRANCH  47  50
ATOM     50  OH  TYR A  11      -7.650  21.027   1.188  0.00  0.00    -0.506 OA
ATOM     51  HH  TYR A  11      -8.407  21.252   1.785  0.00  0.00    +0.292 HD
ENDBRANCH  47  50
ENDBRANCH  43  44
ENDBRANCH  21  43
ENDBRANCH  19  21
ENDBRANCH  16  17
BRANCH  16  52
ATOM     52  CB  VAL A  10      -3.212  25.787   6.489  0.00  0.00    +0.027 C 
ATOM     53  CG2 VAL A  10      -3.643  26.072   7.917  0.00  0.00    +0.002 C 
ATOM     54  CG1 VAL A  10      -2.513  27.048   5.918  0.00  0.00    +0.002 C 
ENDBRANCH  16  52
ENDBRANCH  13  16
ENDBRANCH  11  12
BRANCH  11  55
ATOM     55  CB  VAL A   9      -7.104  21.615   5.514  0.00  0.00    +0.027 C 
ATOM     56  CG2 VAL A   9      -5.919  21.246   4.667  0.00  0.00    +0.002 C 
ATOM     57  CG1 VAL A   9      -8.176  22.298   4.642  0.00  0.00    +0.002 C 
ENDBRANCH  11  55
ENDBRANCH   9  11
ENDBRANCH   6   7
ENDBRANCH   4   6
ENDBRANCH   1   2
BRANCH   1  60
ATOM     58  C   THR A   6      -8.739  22.425  14.449  0.00  0.00    +0.243 C 
ATOM     59  O   THR A   6      -9.638  21.608  14.539  0.00  0.00    -0.273 OA
ATOM     60  N   TYR A   7      -8.793  23.533  13.718  0.00  0.00    -0.297 N 
ATOM     61  H   TYR A   7      -7.937  24.114  13.612  0.00  0.00    +0.150 HD
BRANCH  58  62
ATOM     62  CA  THR A   6      -7.432  22.208  15.197  0.00  0.00    +0.176 C 
BRANCH  62  64
ATOM     63  C   GLY A   5      -6.173  21.441  13.279  0.00  0.00    +0.243 C 
ATOM     64  N   THR A   6      -6.304  22.289  14.303  0.00  0.00    -0.295 N 
ATOM     65  H   THR A   6      -5.580  23.020  14.458  0.00  0.00    +0.150 HD
ATOM     66  O   GLY A   5      -7.014  20.613  12.959  0.00  0.00    -0.273 OA
BRANCH  63  67
ATOM     67  CA  GLY A   5      -4.891  21.667  12.519  0.00  0.00    +0.176 C 
BRANCH  67  69
ATOM     68  C   GLU A   4      -3.995  20.907  10.472  0.00  0.00    +0.241 C 
ATOM     69  N   GLY A   5      -5.008  21.510  11.078  0.00  0.00    -0.295 N 
ATOM     70  H   GLY A   5      -5.839  21.851  10.553  0.00  0.00    +0.150 HD
ATOM     71  O   GLU A   4      -2.977  20.467  11.016  0.00  0.00    -0.273 OA
BRANCH  68  72
ATOM     72  CA  GLU A   4      -4.085  20.791   8.967  0.00  0.00    +0.149 C 
BRANCH  72  74
ATOM     73  C   GLY A   3      -2.385  21.347   7.361  0.00  0.00    +0.243 C 
ATOM     74  N   GLU A   4      -2.717  20.795   8.506  0.00  0.00    -0.297 N 
ATOM     75  H   GLU A   4      -1.980  20.352   9.092  0.00  0.00    +0.150 HD
ATOM     76  O   GLY A   3      -3.180  21.956   6.638  0.00  0.00    -0.273 OA
BRANCH  73  77
ATOM     77  CA  GLY A   3      -0.925  21.271   6.958  0.00  0.00    +0.176 C 
BRANCH  77  80
ATOM     78  C   ILE A   2       0.476  22.297   5.303  0.00  0.00    +0.241 C 
ATOM     79  O   ILE A   2       1.491  21.808   5.809  0.00  0.00    -0.273 OA
ATOM     80  N   GLY A   3      -0.751  22.170   5.799  0.00  0.00    -0.295 N 
ATOM     81  H   GLY A   3      -1.556  22.683   5.387  0.00  0.00    +0.150 HD
BRANCH  78  82
ATOM     82  CA  ILE A   2       0.668  23.242   4.119  0.00  0.00    +0.148 C 
BRANCH  82  84
ATOM     83  C   LYS A   1      -0.281  21.966   2.299  0.00  0.00    +0.238 C 
ATOM     84  N   ILE A   2      -0.421  22.951   3.188  0.00  0.00    -0.297 N 
ATOM     85  H   ILE A   2      -1.299  23.508   3.218  0.00  0.00    +0.150 HD
ATOM     86  O   LYS A   1       0.779  21.316   2.135  0.00  0.00    -0.274 OA
BRANCH  83  87
ATOM     87  CA  LYS A   1      -1.455  21.788   1.327  0.00  0.00    +0.145 C 
BRANCH  87  88
ATOM     88  N   LYS A   1      -0.952  22.044  -0.004  0.00  0.00    -0.238 NA
ATOM     89  H   LYS A   1      -0.625  21.225  -0.555  0.00  0.00    +0.142 HD
ENDBRANCH  87  88
BRANCH  87  90
ATOM     90  CB  LYS A   1      -2.037  20.377   1.421  0.00  0.00    +0.026 C 
BRANCH  90  91
ATOM     91  CG  LYS A   1      -2.884  20.215   2.674  0.00  0.00    -0.000 C 
BRANCH  91  92
ATOM     92  CD  LYS A   1      -3.435  18.802   2.847  0.00  0.00    -0.024 C 
BRANCH  92  93
ATOM     93  CE  LYS A   1      -3.751  18.562   4.314  0.00  0.00    -0.086 C 
BRANCH  93  94
ATOM     94  NZ  LYS A   1      -4.700  17.419   4.501  0.00  0.00    +0.380 N 
ATOM     95  HZ1 LYS A   1      -4.889  17.289   5.515  0.00  0.00    -0.089 HD
ATOM     96  HZ2 LYS A   1      -4.277  16.552   4.112  0.00  0.00    -0.089 HD
ATOM     97  HZ3 LYS A   1      -5.591  17.625   4.005  0.00  0.00    -0.089 HD
ENDBRANCH  93  94
ENDBRANCH  92  93
ENDBRANCH  91  92
ENDBRANCH  90  91
ENDBRANCH  87  90
ENDBRANCH  83  87
ENDBRANCH  82  84
BRANCH  82  98
ATOM     98  CB  ILE A   2       0.725  24.668   4.679  0.00  0.00    +0.027 C 
ATOM     99  CG2 ILE A   2       1.828  24.821   5.747  0.00  0.00    +0.002 C 
BRANCH  98 100
ATOM    100  CG1 ILE A   2       0.890  25.704   3.592  0.00  0.00    +0.002 C 
ATOM    101  CD1 ILE A   2       0.652  27.145   4.008  0.00  0.00    +0.000 C 
ENDBRANCH  98 100
ENDBRANCH  82  98
ENDBRANCH  78  82
ENDBRANCH  77  80
ENDBRANCH  73  77
ENDBRANCH  72  74
BRANCH  72 102
ATOM    102  CB  GLU A   4      -4.809  19.538   8.498  0.00  0.00    +0.041 C 
BRANCH 102 103
ATOM    103  CG  GLU A   4      -4.118  18.282   9.003  0.00  0.00    +0.116 C 
BRANCH 103 104
ATOM    104  CD  GLU A   4      -4.221  17.068   8.083  0.00  0.00    +0.365 C 
ATOM    105  OE2 GLU A   4      -3.851  15.981   8.612  0.00  0.00    -0.246 OA
ATOM    106  OE1 GLU A   4      -4.646  17.186   6.898  0.00  0.00    -0.246 OA
ENDBRANCH 103 104
ENDBRANCH 102 103
ENDBRANCH  72 102
ENDBRANCH  68  72
ENDBRANCH  67  69
ENDBRANCH  63  67
ENDBRANCH  62  64
BRANCH  62 107
ATOM    107  CB  THR A   6      -7.327  23.237  16.354  0.00  0.00    +0.137 C 
ATOM    108  CG2 THR A   6      -8.491  23.078  17.333  0.00  0.00    +0.034 C 
BRANCH 107 109
ATOM    109  OG1 THR A   6      -6.102  23.007  17.069  0.00  0.00    -0.382 OA
ATOM    110  HG1 THR A   6      -5.336  23.116  16.452  0.00  0.00    +0.210 HD
ENDBRANCH 107 109
ENDBRANCH  62 107
ENDBRANCH  58  62
ENDBRANCH   1  60
BRANCH   1 111
ATOM    111  CB  TYR A   7     -10.188  25.473  13.244  0.00  0.00    +0.055 C 
BRANCH 111 112
ATOM    112  CG  TYR A   7     -10.296  25.844  14.709  0.00  0.00    -0.020 A 
ATOM    113  CD2 TYR A   7     -11.383  25.445  15.492  0.00  0.00    -0.001 A 
ATOM    114  CE2 TYR A   7     -11.465  25.795  16.825  0.00  0.00    +0.036 A 
ATOM    115  CZ  TYR A   7     -10.430  26.526  17.387  0.00  0.00    +0.134 A 
ATOM    116  CE1 TYR A   7      -9.334  26.901  16.645  0.00  0.00    +0.036 A 
ATOM    117  CD1 TYR A   7      -9.286  26.563  15.310  0.00  0.00    -0.001 A 
BRANCH 115 118
ATOM    118  OH  TYR A   7     -10.467  26.907  18.731  0.00  0.00    -0.506 OA
ATOM    119  HH  TYR A   7     -11.303  26.575  19.144  0.00  0.00    +0.292 HD
ENDBRANCH 115 118
ENDBRANCH 111 112
ENDBRANCH   1 111
TORSDOF 51
REMARK  Name = ../refined-set-2016/1b38/1b38_pocket.pdb
REMARK  238 active torsions:
REMARK  status: ('A' for Active; 'I' for Inactive)
REMARK    1  A    between atoms: _1  and  _3
REMARK    2  A    between atoms: _3  and  _4
REMARK    3  A    between atoms: _3  and  _6
REMARK    4  A    between atoms: _6  and  _7
REMARK    5  A    between atoms: _7  and  _8
REMARK    6  A    between atoms: _8  and  _9
REMARK    7  A    between atoms: _9  and  _10
REMARK    8  A    between atoms: _14  and  _16
REMARK    9  A    between atoms: _16  and  _17
REMARK   10  A    between atoms: _16  and  _19
REMARK   11  A    between atoms: _19  and  _20
REMARK   12  A    between atoms: _23  and  _25
REMARK   13  A    between atoms: _25  and  _26
REMARK   14  A    between atoms: _28  and  _30
REMARK   15  A    between atoms: _30  and  _31
REMARK   16  A    between atoms: _30  and  _33
REMARK   17  A    between atoms: _33  and  _34
REMARK   18  A    between atoms: _34  and  _35
REMARK   19  A    between atoms: _38  and  _40
REMARK   20  A    between atoms: _40  and  _41
REMARK   21  A    between atoms: _43  and  _45
REMARK   22  A    between atoms: _45  and  _46
REMARK   23  A    between atoms: _45  and  _48
REMARK   24  A    between atoms: _48  and  _49
REMARK   25  A    between atoms: _52  and  _54
REMARK   26  A    between atoms: _54  and  _55
REMARK   27  A    between atoms: _54  and  _57
REMARK   28  A    between atoms: _57  and  _58
REMARK   29  A    between atoms: _63  and  _64
REMARK   30  A    between atoms: _66  and  _68
REMARK   31  A    between atoms: _68  and  _69
REMARK   32  A    between atoms: _71  and  _73
REMARK   33  A    between atoms: _73  and  _74
REMARK   34  A    between atoms: _73  and  _76
REMARK   35  A    between atoms: _79  and  _81
REMARK   36  A    between atoms: _81  and  _82
REMARK   37  A    between atoms: _81  and  _84
REMARK   38  A    between atoms: _87  and  _89
REMARK   39  A    between atoms: _89  and  _90
REMARK   40  A    between atoms: _89  and  _92
REMARK   41  A    between atoms: _92  and  _93
REMARK   42  A    between atoms: _98  and  _99
REMARK   43  A    between atoms: _101  and  _103
REMARK   44  A    between atoms: _103  and  _104
REMARK   45  A    between atoms: _103  and  _106
REMARK   46  A    between atoms: _106  and  _107
REMARK   47  A    between atoms: _107  and  _108
REMARK   48  A    between atoms: _108  and  _109
REMARK   49  A    between atoms: _109  and  _110
REMARK   50  A    between atoms: _114  and  _116
REMARK   51  A    between atoms: _116  and  _117
REMARK   52  A    between atoms: _120  and  _122
REMARK   53  A    between atoms: _122  and  _123
REMARK   54  A    between atoms: _122  and  _125
REMARK   55  A    between atoms: _128  and  _130
REMARK   56  A    between atoms: _130  and  _131
REMARK   57  A    between atoms: _134  and  _136
REMARK   58  A    between atoms: _136  and  _137
REMARK   59  A    between atoms: _136  and  _139
REMARK   60  A    between atoms: _139  and  _140
REMARK   61  A    between atoms: _143  and  _145
REMARK   62  A    between atoms: _145  and  _146
REMARK   63  A    between atoms: _145  and  _148
REMARK   64  A    between atoms: _148  and  _149
REMARK   65  A    between atoms: _149  and  _150
REMARK   66  A    between atoms: _150  and  _151
REMARK   67  A    between atoms: _151  and  _152
REMARK   68  A    between atoms: _156  and  _158
REMARK   69  A    between atoms: _158  and  _159
REMARK   70  A    between atoms: _158  and  _161
REMARK   71  A    between atoms: _161  and  _162
REMARK   72  A    between atoms: _162  and  _163
REMARK   73  A    between atoms: _163  and  _164
REMARK   74  A    between atoms: _164  and  _165
REMARK   75  A    between atoms: _169  and  _171
REMARK   76  A    between atoms: _171  and  _172
REMARK   77  A    between atoms: _171  and  _174
REMARK   78  A    between atoms: _174  and  _175
REMARK   79  A    between atoms: _178  and  _180
REMARK   80  A    between atoms: _180  and  _181
REMARK   81  A    between atoms: _180  and  _183
REMARK   82  A    between atoms: _186  and  _188
REMARK   83  A    between atoms: _188  and  _189
REMARK   84  A    between atoms: _188  and  _191
REMARK   85  A    between atoms: _191  and  _192
REMARK   86  A    between atoms: _192  and  _193
REMARK   87  A    between atoms: _193  and  _194
REMARK   88  A    between atoms: _194  and  _195
REMARK   89  A    between atoms: _199  and  _201
REMARK   90  A    between atoms: _201  and  _202
REMARK   91  A    between atoms: _201  and  _204
REMARK   92  A    between atoms: _204  and  _205
REMARK   93  A    between atoms: _208  and  _210
REMARK   94  A    between atoms: _210  and  _211
REMARK   95  A    between atoms: _210  and  _213
REMARK   96  A    between atoms: _213  and  _214
REMARK   97  A    between atoms: _217  and  _219
REMARK   98  A    between atoms: _219  and  _220
REMARK   99  A    between atoms: _219  and  _222
REMARK  100  A    between atoms: _225  and  _227
REMARK  101  A    between atoms: _227  and  _228
REMARK  102  A    between atoms: _227  and  _230
REMARK  103  A    between atoms: _230  and  _231
REMARK  104  A    between atoms: _237  and  _239
REMARK  105  A    between atoms: _239  and  _240
REMARK  106  A    between atoms: _239  and  _242
REMARK  107  A    between atoms: _242  and  _243
REMARK  108  A    between atoms: _243  and  _244
REMARK  109  A    between atoms: _247  and  _249
REMARK  110  A    between atoms: _249  and  _250
REMARK  111  A    between atoms: _249  and  _252
REMARK  112  A    between atoms: _252  and  _253
REMARK  113  A    between atoms: _259  and  _261
REMARK  114  A    between atoms: _261  and  _262
REMARK  115  A    between atoms: _261  and  _264
REMARK  116  A    between atoms: _264  and  _265
REMARK  117  A    between atoms: _268  and  _270
REMARK  118  A    between atoms: _270  and  _271
REMARK  119  A    between atoms: _270  and  _273
REMARK  120  A    between atoms: _273  and  _274
REMARK  121  A    between atoms: _279  and  _281
REMARK  122  A    between atoms: _281  and  _282
REMARK  123  A    between atoms: _281  and  _284
REMARK  124  A    between atoms: _284  and  _285
REMARK  125  A    between atoms: _285  and  _286
REMARK  126  A    between atoms: _291  and  _293
REMARK  127  A    between atoms: _293  and  _294
REMARK  128  A    between atoms: _293  and  _296
REMARK  129  A    between atoms: _296  and  _297
REMARK  130  A    between atoms: _300  and  _302
REMARK  131  A    between atoms: _302  and  _303
REMARK  132  A    between atoms: _302  and  _305
REMARK  133  A    between atoms: _305  and  _306
REMARK  134  A    between atoms: _309  and  _311
REMARK  135  A    between atoms: _311  and  _312
REMARK  136  A    between atoms: _311  and  _314
REMARK  137  A    between atoms: _314  and  _315
REMARK  138  A    between atoms: _315  and  _316
REMARK  139  A    between atoms: _316  and  _317
REMARK  140  A    between atoms: _317  and  _318
REMARK  141  A    between atoms: _322  and  _324
REMARK  142  A    between atoms: _324  and  _325
REMARK  143  A    between atoms: _324  and  _327
REMARK  144  A    between atoms: _327  and  _328
REMARK  145  A    between atoms: _328  and  _329
REMARK  146  A    between atoms: _329  and  _330
REMARK  147  A    between atoms: _330  and  _331
REMARK  148  A    between atoms: _335  and  _337
REMARK  149  A    between atoms: _337  and  _338
REMARK  150  A    between atoms: _337  and  _340
REMARK  151  A    between atoms: _340  and  _341
REMARK  152  A    between atoms: _346  and  _348
REMARK  153  A    between atoms: _348  and  _349
REMARK  154  A    between atoms: _348  and  _351
REMARK  155  A    between atoms: _351  and  _352
REMARK  156  A    between atoms: _355  and  _357
REMARK  157  A    between atoms: _357  and  _358
REMARK  158  A    between atoms: _357  and  _360
REMARK  159  A    between atoms: _360  and  _361
REMARK  160  A    between atoms: _364  and  _366
REMARK  161  A    between atoms: _366  and  _367
REMARK  162  A    between atoms: _366  and  _369
REMARK  163  A    between atoms: _369  and  _370
REMARK  164  A    between atoms: _370  and  _371
REMARK  165  A    between atoms: _371  and  _372
REMARK  166  A    between atoms: _372  and  _373
REMARK  167  A    between atoms: _378  and  _379
REMARK  168  A    between atoms: _384  and  _386
REMARK  169  A    between atoms: _386  and  _387
REMARK  170  A    between atoms: _386  and  _389
REMARK  171  A    between atoms: _389  and  _390
REMARK  172  A    between atoms: _390  and  _391
REMARK  173  A    between atoms: _396  and  _398
REMARK  174  A    between atoms: _398  and  _399
REMARK  175  A    between atoms: _398  and  _401
REMARK  176  A    between atoms: _401  and  _402
REMARK  177  A    between atoms: _407  and  _409
REMARK  178  A    between atoms: _409  and  _410
REMARK  179  A    between atoms: _409  and  _412
REMARK  180  A    between atoms: _412  and  _413
REMARK  181  A    between atoms: _416  and  _418
REMARK  182  A    between atoms: _418  and  _419
REMARK  183  A    between atoms: _418  and  _421
REMARK  184  A    between atoms: _421  and  _422
REMARK  185  A    between atoms: _425  and  _427
REMARK  186  A    between atoms: _427  and  _428
REMARK  187  A    between atoms: _427  and  _430
REMARK  188  A    between atoms: _430  and  _431
REMARK  189  A    between atoms: _434  and  _436
REMARK  190  A    between atoms: _436  and  _437
REMARK  191  A    between atoms: _436  and  _439
REMARK  192  A    between atoms: _439  and  _440
REMARK  193  A    between atoms: _443  and  _445
REMARK  194  A    between atoms: _445  and  _446
REMARK  195  A    between atoms: _449  and  _451
REMARK  196  A    between atoms: _451  and  _452
REMARK  197  A    between atoms: _451  and  _454
REMARK  198  A    between atoms: _454  and  _455
REMARK  199  A    between atoms: _455  and  _457
REMARK  200  A    between atoms: _457  and  MG_558
REMARK  201  A    between atoms: _458  and  _460
REMARK  202  A    between atoms: _460  and  _461
REMARK  203  A    between atoms: _460  and  _463
REMARK  204  A    between atoms: _463  and  _464
REMARK  205  A    between atoms: _470  and  _472
REMARK  206  A    between atoms: _472  and  _473
REMARK  207  A    between atoms: _472  and  _475
REMARK  208  A    between atoms: _475  and  _476
REMARK  209  A    between atoms: _479  and  _481
REMARK  210  A    between atoms: _481  and  _482
REMARK  211  A    between atoms: _485  and  _487
REMARK  212  A    between atoms: _487  and  _488
REMARK  213  A    between atoms: _487  and  _490
REMARK  214  A    between atoms: _494  and  _495
REMARK  215  A    between atoms: _500  and  _502
REMARK  216  A    between atoms: _502  and  _503
REMARK  217  A    between atoms: _502  and  _505
REMARK  218  A    between atoms: _505  and  _506
REMARK  219  A    between atoms: _509  and  _511
REMARK  220  A    between atoms: _511  and  _512
REMARK  221  A    between atoms: _511  and  _514
REMARK  222  A    between atoms: _514  and  _515
REMARK  223  A    between atoms: _520  and  _521
REMARK  224  A    between atoms: _523  and  _525
REMARK  225  A    between atoms: _525  and  _526
REMARK  226  A    between atoms: _525  and  _528
REMARK  227  A    between atoms: _528  and  _529
REMARK  228  A    between atoms: _529  and  _530
REMARK  229  A    between atoms: _533  and  _535
REMARK  230  A    between atoms: _535  and  _536
REMARK  231  A    between atoms: _535  and  _538
REMARK  232  A    between atoms: _541  and  _543
REMARK  233  A    between atoms: _543  and  _544
REMARK  234  A    between atoms: _543  and  _546
REMARK  235  A    between atoms: _549  and  _551
REMARK  236  A    between atoms: _551  and  _552
REMARK  237  A    between atoms: _551  and  _554
REMARK  238  A    between atoms: _554  and  _555
REMARK                            x       y       z     vdW  Elec       q    Type
REMARK                         _______ _______ _______ _____ _____    ______ ____
ROOT
ATOM      1  CA  LYS A   4      -7.458  28.261   6.099  0.00  0.00    +0.149 C 
ENDROOT
BRANCH   1   3
ATOM      2  C   LEU A   3      -6.333  28.923   4.120  0.00  0.00    +0.241 C 
ATOM      3  N   LYS A   4      -7.042  29.320   5.179  0.00  0.00    -0.297 N 
ATOM      4  H   LYS A   4      -7.283  30.319   5.340  0.00  0.00    +0.150 HD
ATOM      5  O   LEU A   3      -5.900  27.805   3.856  0.00  0.00    -0.273 OA
BRANCH   2   6
ATOM      6  CA  LEU A   3      -5.860  29.974   3.126  0.00  0.00    +0.149 C 
BRANCH   6   9
ATOM      7  C   ALA A   2      -3.726  31.064   3.609  0.00  0.00    +0.241 C 
ATOM      8  O   ALA A   2      -4.354  31.922   4.206  0.00  0.00    -0.273 OA
ATOM      9  N   LEU A   3      -4.414  30.059   3.129  0.00  0.00    -0.297 N 
ATOM     10  H   LEU A   3      -3.884  29.263   2.720  0.00  0.00    +0.150 HD
BRANCH   7  11
ATOM     11  CA  ALA A   2      -2.211  31.055   3.383  0.00  0.00    +0.149 C 
ATOM     12  CB  ALA A   2      -1.388  31.036   4.678  0.00  0.00    +0.031 C 
BRANCH  11  14
ATOM     13  C   VAL A   1      -1.508  32.370   1.462  0.00  0.00    +0.238 C 
ATOM     14  N   ALA A   2      -1.943  32.333   2.723  0.00  0.00    -0.297 N 
ATOM     15  H   ALA A   2      -2.093  33.222   3.242  0.00  0.00    +0.150 HD
ATOM     16  O   VAL A   1      -1.249  31.342   0.836  0.00  0.00    -0.274 OA
BRANCH  13  17
ATOM     17  CA  VAL A   1      -1.417  33.776   0.844  0.00  0.00    +0.145 C 
BRANCH  17  18
ATOM     18  CB  VAL A   1      -2.823  34.353   0.739  0.00  0.00    +0.025 C 
ATOM     19  CG2 VAL A   1      -3.823  33.379   0.114  0.00  0.00    +0.002 C 
ATOM     20  CG1 VAL A   1      -2.943  35.665  -0.098  0.00  0.00    +0.002 C 
ENDBRANCH  17  18
BRANCH  17  21
ATOM     21  N   VAL A   1      -0.754  33.704  -0.463  0.00  0.00    -0.238 NA
ATOM     22  H   VAL A   1      -1.030  32.950  -1.124  0.00  0.00    +0.142 HD
ENDBRANCH  17  21
ENDBRANCH  13  17
ENDBRANCH  11  14
ENDBRANCH   7  11
ENDBRANCH   6   9
BRANCH   6  23
ATOM     23  CB  LEU A   3      -6.274  29.516   1.736  0.00  0.00    +0.029 C 
BRANCH  23  24
ATOM     24  CG  LEU A   3      -7.099  30.418   0.828  0.00  0.00    +0.002 C 
ATOM     25  CD2 LEU A   3      -8.238  31.132   1.563  0.00  0.00    +0.000 C 
ATOM     26  CD1 LEU A   3      -7.713  29.512  -0.225  0.00  0.00    +0.000 C 
ENDBRANCH  23  24
ENDBRANCH   6  23
ENDBRANCH   2   6
ENDBRANCH   1   3
BRANCH   1  27
ATOM     27  C   LYS A   4      -8.939  27.987   5.922  0.00  0.00    +0.241 C 
ATOM     28  O   LYS A   4      -9.770  28.876   6.069  0.00  0.00    -0.273 OA
ATOM     29  N   LYS A   5      -9.316  26.778   5.593  0.00  0.00    -0.297 N 
ATOM     30  H   LYS A   5      -8.593  26.053   5.413  0.00  0.00    +0.150 HD
BRANCH  29  31
ATOM     31  CA  LYS A   5     -10.737  26.419   5.472  0.00  0.00    +0.149 C 
BRANCH  31  32
ATOM     32  C   LYS A   5     -11.208  25.870   6.816  0.00  0.00    +0.240 C 
ATOM     33  N   ILE A   6     -12.172  26.445   7.503  0.00  0.00    -0.302 N 
ATOM     34  H   ILE A   6     -12.706  27.216   7.053  0.00  0.00    +0.150 HD
ATOM     35  O   LYS A   5     -10.583  24.918   7.288  0.00  0.00    -0.273 OA
BRANCH  33  36
ATOM     36  CA  ILE A   6     -12.530  26.059   8.859  0.00  0.00    +0.104 C 
BRANCH  36  37
ATOM     37  C   ILE A   6     -13.592  24.946   8.863  0.00  0.00    +0.201 C 
ATOM     38  O   ILE A   6     -14.383  25.189   7.917  0.00  0.00    -0.219 OA
ENDBRANCH  36  37
BRANCH  36  39
ATOM     39  CB  ILE A   6     -13.085  27.284   9.598  0.00  0.00    +0.021 C 
ATOM     40  CG2 ILE A   6     -13.672  26.893  10.949  0.00  0.00    +0.002 C 
BRANCH  39  41
ATOM     41  CG1 ILE A   6     -12.044  28.397   9.717  0.00  0.00    +0.002 C 
ATOM     42  CD1 ILE A   6     -10.746  28.067  10.406  0.00  0.00    +0.000 C 
ENDBRANCH  39  41
ENDBRANCH  36  39
ENDBRANCH  33  36
ENDBRANCH  31  32
BRANCH  31  43
ATOM     43  CB  LYS A   5     -10.933  25.400   4.342  0.00  0.00    +0.029 C 
BRANCH  43  44
ATOM     44  CG  LYS A   5     -12.452  25.038   4.268  0.00  0.00    +0.000 C 
BRANCH  44  45
ATOM     45  CD  LYS A   5     -12.647  23.908   3.270  0.00  0.00    -0.024 C 
BRANCH  45  46
ATOM     46  CE  LYS A   5     -13.824  23.014   3.683  0.00  0.00    -0.086 C 
BRANCH  46  47
ATOM     47  NZ  LYS A   5     -13.487  21.584   3.382  0.00  0.00    +0.380 N 
ATOM     48  HZ1 LYS A   5     -12.637  21.310   3.914  0.00  0.00    -0.089 HD
ATOM     49  HZ2 LYS A   5     -14.283  20.975   3.661  0.00  0.00    -0.089 HD
ATOM     50  HZ3 LYS A   5     -13.309  21.478   2.363  0.00  0.00    -0.089 HD
ENDBRANCH  46  47
ENDBRANCH  45  46
ENDBRANCH  44  45
ENDBRANCH  43  44
ENDBRANCH  31  43
ENDBRANCH  29  31
ENDBRANCH   1  27
BRANCH   1  51
ATOM     51  CB  LYS A   4      -7.106  28.605   7.545  0.00  0.00    +0.029 C 
BRANCH  51  52
ATOM     52  CG  LYS A   4      -7.604  27.538   8.516  0.00  0.00    +0.000 C 
BRANCH  52  53
ATOM     53  CD  LYS A   4      -7.181  27.777   9.952  0.00  0.00    -0.024 C 
BRANCH  53  54
ATOM     54  CE  LYS A   4      -5.669  27.635  10.132  0.00  0.00    -0.086 C 
BRANCH  54  55
ATOM     55  NZ  LYS A   4      -5.388  27.850  11.581  0.00  0.00    +0.380 N 
ATOM     56  HZ1 LYS A   4      -5.897  27.136  12.141  0.00  0.00    -0.089 HD
ATOM     57  HZ2 LYS A   4      -5.706  28.801  11.857  0.00  0.00    -0.089 HD
ATOM     58  HZ3 LYS A   4      -4.366  27.762  11.751  0.00  0.00    -0.089 HD
ENDBRANCH  54  55
ENDBRANCH  53  54
ENDBRANCH  52  53
ENDBRANCH  51  52
ENDBRANCH   1  51
TORSDOF 27
REMARK  Name = ../refined-set-2016/1b38/1b38_pocket.pdb
REMARK  238 active torsions:
REMARK  status: ('A' for Active; 'I' for Inactive)
REMARK    1  A    between atoms: _1  and  _3
REMARK    2  A    between atoms: _3  and  _4
REMARK    3  A    between atoms: _3  and  _6
REMARK    4  A    between atoms: _6  and  _7
REMARK    5  A    between atoms: _7  and  _8
REMARK    6  A    between atoms: _8  and  _9
REMARK    7  A    between atoms: _9  and  _10
REMARK    8  A    between atoms: _14  and  _16
REMARK    9  A    between atoms: _16  and  _17
REMARK   10  A    between atoms: _16  and  _19
REMARK   11  A    between atoms: _19  and  _20
REMARK   12  A    between atoms: _23  and  _25
REMARK   13  A    between atoms: _25  and  _26
REMARK   14  A    between atoms: _28  and  _30
REMARK   15  A    between atoms: _30  and  _31
REMARK   16  A    between atoms: _30  and  _33
REMARK   17  A    between atoms: _33  and  _34
REMARK   18  A    between atoms: _34  and  _35
REMARK   19  A    between atoms: _38  and  _40
REMARK   20  A    between atoms: _40  and  _41
REMARK   21  A    between atoms: _43  and  _45
REMARK   22  A    between atoms: _45  and  _46
REMARK   23  A    between atoms: _45  and  _48
REMARK   24  A    between atoms: _48  and  _49
REMARK   25  A    between atoms: _52  and  _54
REMARK   26  A    between atoms: _54  and  _55
REMARK   27  A    between atoms: _54  and  _57
REMARK   28  A    between atoms: _57  and  _58
REMARK   29  A    between atoms: _63  and  _64
REMARK   30  A    between atoms: _66  and  _68
REMARK   31  A    between atoms: _68  and  _69
REMARK   32  A    between atoms: _71  and  _73
REMARK   33  A    between atoms: _73  and  _74
REMARK   34  A    between atoms: _73  and  _76
REMARK   35  A    between atoms: _79  and  _81
REMARK   36  A    between atoms: _81  and  _82
REMARK   37  A    between atoms: _81  and  _84
REMARK   38  A    between atoms: _87  and  _89
REMARK   39  A    between atoms: _89  and  _90
REMARK   40  A    between atoms: _89  and  _92
REMARK   41  A    between atoms: _92  and  _93
REMARK   42  A    between atoms: _98  and  _99
REMARK   43  A    between atoms: _101  and  _103
REMARK   44  A    between atoms: _103  and  _104
REMARK   45  A    between atoms: _103  and  _106
REMARK   46  A    between atoms: _106  and  _107
REMARK   47  A    between atoms: _107  and  _108
REMARK   48  A    between atoms: _108  and  _109
REMARK   49  A    between atoms: _109  and  _110
REMARK   50  A    between atoms: _114  and  _116
REMARK   51  A    between atoms: _116  and  _117
REMARK   52  A    between atoms: _120  and  _122
REMARK   53  A    between atoms: _122  and  _123
REMARK   54  A    between atoms: _122  and  _125
REMARK   55  A    between atoms: _128  and  _130
REMARK   56  A    between atoms: _130  and  _131
REMARK   57  A    between atoms: _134  and  _136
REMARK   58  A    between atoms: _136  and  _137
REMARK   59  A    between atoms: _136  and  _139
REMARK   60  A    between atoms: _139  and  _140
REMARK   61  A    between atoms: _143  and  _145
REMARK   62  A    between atoms: _145  and  _146
REMARK   63  A    between atoms: _145  and  _148
REMARK   64  A    between atoms: _148  and  _149
REMARK   65  A    between atoms: _149  and  _150
REMARK   66  A    between atoms: _150  and  _151
REMARK   67  A    between atoms: _151  and  _152
REMARK   68  A    between atoms: _156  and  _158
REMARK   69  A    between atoms: _158  and  _159
REMARK   70  A    between atoms: _158  and  _161
REMARK   71  A    between atoms: _161  and  _162
REMARK   72  A    between atoms: _162  and  _163
REMARK   73  A    between atoms: _163  and  _164
REMARK   74  A    between atoms: _164  and  _165
REMARK   75  A    between atoms: _169  and  _171
REMARK   76  A    between atoms: _171  and  _172
REMARK   77  A    between atoms: _171  and  _174
REMARK   78  A    between atoms: _174  and  _175
REMARK   79  A    between atoms: _178  and  _180
REMARK   80  A    between atoms: _180  and  _181
REMARK   81  A    between atoms: _180  and  _183
REMARK   82  A    between atoms: _186  and  _188
REMARK   83  A    between atoms: _188  and  _189
REMARK   84  A    between atoms: _188  and  _191
REMARK   85  A    between atoms: _191  and  _192
REMARK   86  A    between atoms: _192  and  _193
REMARK   87  A    between atoms: _193  and  _194
REMARK   88  A    between atoms: _194  and  _195
REMARK   89  A    between atoms: _199  and  _201
REMARK   90  A    between atoms: _201  and  _202
REMARK   91  A    between atoms: _201  and  _204
REMARK   92  A    between atoms: _204  and  _205
REMARK   93  A    between atoms: _208  and  _210
REMARK   94  A    between atoms: _210  and  _211
REMARK   95  A    between atoms: _210  and  _213
REMARK   96  A    between atoms: _213  and  _214
REMARK   97  A    between atoms: _217  and  _219
REMARK   98  A    between atoms: _219  and  _220
REMARK   99  A    between atoms: _219  and  _222
REMARK  100  A    between atoms: _225  and  _227
REMARK  101  A    between atoms: _227  and  _228
REMARK  102  A    between atoms: _227  and  _230
REMARK  103  A    between atoms: _230  and  _231
REMARK  104  A    between atoms: _237  and  _239
REMARK  105  A    between atoms: _239  and  _240
REMARK  106  A    between atoms: _239  and  _242
REMARK  107  A    between atoms: _242  and  _243
REMARK  108  A    between atoms: _243  and  _244
REMARK  109  A    between atoms: _247  and  _249
REMARK  110  A    between atoms: _249  and  _250
REMARK  111  A    between atoms: _249  and  _252
REMARK  112  A    between atoms: _252  and  _253
REMARK  113  A    between atoms: _259  and  _261
REMARK  114  A    between atoms: _261  and  _262
REMARK  115  A    between atoms: _261  and  _264
REMARK  116  A    between atoms: _264  and  _265
REMARK  117  A    between atoms: _268  and  _270
REMARK  118  A    between atoms: _270  and  _271
REMARK  119  A    between atoms: _270  and  _273
REMARK  120  A    between atoms: _273  and  _274
REMARK  121  A    between atoms: _279  and  _281
REMARK  122  A    between atoms: _281  and  _282
REMARK  123  A    between atoms: _281  and  _284
REMARK  124  A    between atoms: _284  and  _285
REMARK  125  A    between atoms: _285  and  _286
REMARK  126  A    between atoms: _291  and  _293
REMARK  127  A    between atoms: _293  and  _294
REMARK  128  A    between atoms: _293  and  _296
REMARK  129  A    between atoms: _296  and  _297
REMARK  130  A    between atoms: _300  and  _302
REMARK  131  A    between atoms: _302  and  _303
REMARK  132  A    between atoms: _302  and  _305
REMARK  133  A    between atoms: _305  and  _306
REMARK  134  A    between atoms: _309  and  _311
REMARK  135  A    between atoms: _311  and  _312
REMARK  136  A    between atoms: _311  and  _314
REMARK  137  A    between atoms: _314  and  _315
REMARK  138  A    between atoms: _315  and  _316
REMARK  139  A    between atoms: _316  and  _317
REMARK  140  A    between atoms: _317  and  _318
REMARK  141  A    between atoms: _322  and  _324
REMARK  142  A    between atoms: _324  and  _325
REMARK  143  A    between atoms: _324  and  _327
REMARK  144  A    between atoms: _327  and  _328
REMARK  145  A    between atoms: _328  and  _329
REMARK  146  A    between atoms: _329  and  _330
REMARK  147  A    between atoms: _330  and  _331
REMARK  148  A    between atoms: _335  and  _337
REMARK  149  A    between atoms: _337  and  _338
REMARK  150  A    between atoms: _337  and  _340
REMARK  151  A    between atoms: _340  and  _341
REMARK  152  A    between atoms: _346  and  _348
REMARK  153  A    between atoms: _348  and  _349
REMARK  154  A    between atoms: _348  and  _351
REMARK  155  A    between atoms: _351  and  _352
REMARK  156  A    between atoms: _355  and  _357
REMARK  157  A    between atoms: _357  and  _358
REMARK  158  A    between atoms: _357  and  _360
REMARK  159  A    between atoms: _360  and  _361
REMARK  160  A    between atoms: _364  and  _366
REMARK  161  A    between atoms: _366  and  _367
REMARK  162  A    between atoms: _366  and  _369
REMARK  163  A    between atoms: _369  and  _370
REMARK  164  A    between atoms: _370  and  _371
REMARK  165  A    between atoms: _371  and  _372
REMARK  166  A    between atoms: _372  and  _373
REMARK  167  A    between atoms: _378  and  _379
REMARK  168  A    between atoms: _384  and  _386
REMARK  169  A    between atoms: _386  and  _387
REMARK  170  A    between atoms: _386  and  _389
REMARK  171  A    between atoms: _389  and  _390
REMARK  172  A    between atoms: _390  and  _391
REMARK  173  A    between atoms: _396  and  _398
REMARK  174  A    between atoms: _398  and  _399
REMARK  175  A    between atoms: _398  and  _401
REMARK  176  A    between atoms: _401  and  _402
REMARK  177  A    between atoms: _407  and  _409
REMARK  178  A    between atoms: _409  and  _410
REMARK  179  A    between atoms: _409  and  _412
REMARK  180  A    between atoms: _412  and  _413
REMARK  181  A    between atoms: _416  and  _418
REMARK  182  A    between atoms: _418  and  _419
REMARK  183  A    between atoms: _418  and  _421
REMARK  184  A    between atoms: _421  and  _422
REMARK  185  A    between atoms: _425  and  _427
REMARK  186  A    between atoms: _427  and  _428
REMARK  187  A    between atoms: _427  and  _430
REMARK  188  A    between atoms: _430  and  _431
REMARK  189  A    between atoms: _434  and  _436
REMARK  190  A    between atoms: _436  and  _437
REMARK  191  A    between atoms: _436  and  _439
REMARK  192  A    between atoms: _439  and  _440
REMARK  193  A    between atoms: _443  and  _445
REMARK  194  A    between atoms: _445  and  _446
REMARK  195  A    between atoms: _449  and  _451
REMARK  196  A    between atoms: _451  and  _452
REMARK  197  A    between atoms: _451  and  _454
REMARK  198  A    between atoms: _454  and  _455
REMARK  199  A    between atoms: _455  and  _457
REMARK  200  A    between atoms: _457  and  MG_558
REMARK  201  A    between atoms: _458  and  _460
REMARK  202  A    between atoms: _460  and  _461
REMARK  203  A    between atoms: _460  and  _463
REMARK  204  A    between atoms: _463  and  _464
REMARK  205  A    between atoms: _470  and  _472
REMARK  206  A    between atoms: _472  and  _473
REMARK  207  A    between atoms: _472  and  _475
REMARK  208  A    between atoms: _475  and  _476
REMARK  209  A    between atoms: _479  and  _481
REMARK  210  A    between atoms: _481  and  _482
REMARK  211  A    between atoms: _485  and  _487
REMARK  212  A    between atoms: _487  and  _488
REMARK  213  A    between atoms: _487  and  _490
REMARK  214  A    between atoms: _494  and  _495
REMARK  215  A    between atoms: _500  and  _502
REMARK  216  A    between atoms: _502  and  _503
REMARK  217  A    between atoms: _502  and  _505
REMARK  218  A    between atoms: _505  and  _506
REMARK  219  A    between atoms: _509  and  _511
REMARK  220  A    between atoms: _511  and  _512
REMARK  221  A    between atoms: _511  and  _514
REMARK  222  A    between atoms: _514  and  _515
REMARK  223  A    between atoms: _520  and  _521
REMARK  224  A    between atoms: _523  and  _525
REMARK  225  A    between atoms: _525  and  _526
REMARK  226  A    between atoms: _525  and  _528
REMARK  227  A    between atoms: _528  and  _529
REMARK  228  A    between atoms: _529  and  _530
REMARK  229  A    between atoms: _533  and  _535
REMARK  230  A    between atoms: _535  and  _536
REMARK  231  A    between atoms: _535  and  _538
REMARK  232  A    between atoms: _541  and  _543
REMARK  233  A    between atoms: _543  and  _544
REMARK  234  A    between atoms: _543  and  _546
REMARK  235  A    between atoms: _549  and  _551
REMARK  236  A    between atoms: _551  and  _552
REMARK  237  A    between atoms: _551  and  _554
REMARK  238  A    between atoms: _554  and  _555
REMARK                            x       y       z     vdW  Elec       q    Type
REMARK                         _______ _______ _______ _____ _____    ______ ____
ROOT
ATOM      1  CA  LYS A   2      -1.951  39.520   9.184  0.00  0.00    +0.137 C 
ENDROOT
BRANCH   1   4
ATOM      2  C   VAL A   1      -0.929  37.981  10.683  0.00  0.00    +0.238 C 
ATOM      3  O   VAL A   1      -1.959  37.986  11.358  0.00  0.00    -0.274 OA
ATOM      4  N   LYS A   2      -0.794  38.718   9.574  0.00  0.00    -0.298 N 
ATOM      5  H   LYS A   2       0.086  38.720   9.020  0.00  0.00    +0.150 HD
BRANCH   2   6
ATOM      6  CA  VAL A   1       0.312  37.247  11.215  0.00  0.00    +0.145 C 
BRANCH   6   7
ATOM      7  CB  VAL A   1       0.101  35.738  11.012  0.00  0.00    +0.025 C 
ATOM      8  CG2 VAL A   1       1.362  34.959  11.344  0.00  0.00    +0.002 C 
ATOM      9  CG1 VAL A   1      -0.225  35.364   9.562  0.00  0.00    +0.002 C 
ENDBRANCH   6   7
BRANCH   6  10
ATOM     10  N   VAL A   1       0.524  37.642  12.624  0.00  0.00    -0.238 NA
ATOM     11  H   VAL A   1       0.520  36.898  13.351  0.00  0.00    +0.142 HD
ENDBRANCH   6  10
ENDBRANCH   2   6
ENDBRANCH   1   4
BRANCH   1  12
ATOM     12  C   LYS A   2      -3.132  38.697   8.695  0.00  0.00    +0.227 C 
ATOM     13  O   LYS A   2      -2.921  37.867   7.803  0.00  0.00    -0.286 OA
ENDBRANCH   1  12
BRANCH   1  14
ATOM     14  CB  LYS A   2      -1.581  40.517   8.048  0.00  0.00    +0.028 C 
BRANCH  14  15
ATOM     15  CG  LYS A   2      -2.730  41.624   7.963  0.00  0.00    -0.000 C 
BRANCH  15  16
ATOM     16  CD  LYS A   2      -2.095  42.623   6.991  0.00  0.00    -0.024 C 
BRANCH  16  17
ATOM     17  CE  LYS A   2      -2.992  43.685   6.407  0.00  0.00    -0.086 C 
BRANCH  17  18
ATOM     18  NZ  LYS A   2      -3.744  44.457   7.409  0.00  0.00    +0.380 N 
ATOM     19  HZ1 LYS A   2      -3.077  44.937   8.047  0.00  0.00    -0.089 HD
ATOM     20  HZ2 LYS A   2      -4.349  43.814   7.958  0.00  0.00    -0.089 HD
ATOM     21  HZ3 LYS A   2      -4.335  45.164   6.928  0.00  0.00    -0.089 HD
ENDBRANCH  17  18
ENDBRANCH  16  17
ENDBRANCH  15  16
ENDBRANCH  14  15
ENDBRANCH   1  14
TORSDOF 10
REMARK  Name = ../refined-set-2016/1b38/1b38_pocket.pdb
REMARK  238 active torsions:
REMARK  status: ('A' for Active; 'I' for Inactive)
REMARK    1  A    between atoms: _1  and  _3
REMARK    2  A    between atoms: _3  and  _4
REMARK    3  A    between atoms: _3  and  _6
REMARK    4  A    between atoms: _6  and  _7
REMARK    5  A    between atoms: _7  and  _8
REMARK    6  A    between atoms: _8  and  _9
REMARK    7  A    between atoms: _9  and  _10
REMARK    8  A    between atoms: _14  and  _16
REMARK    9  A    between atoms: _16  and  _17
REMARK   10  A    between atoms: _16  and  _19
REMARK   11  A    between atoms: _19  and  _20
REMARK   12  A    between atoms: _23  and  _25
REMARK   13  A    between atoms: _25  and  _26
REMARK   14  A    between atoms: _28  and  _30
REMARK   15  A    between atoms: _30  and  _31
REMARK   16  A    between atoms: _30  and  _33
REMARK   17  A    between atoms: _33  and  _34
REMARK   18  A    between atoms: _34  and  _35
REMARK   19  A    between atoms: _38  and  _40
REMARK   20  A    between atoms: _40  and  _41
REMARK   21  A    between atoms: _43  and  _45
REMARK   22  A    between atoms: _45  and  _46
REMARK   23  A    between atoms: _45  and  _48
REMARK   24  A    between atoms: _48  and  _49
REMARK   25  A    between atoms: _52  and  _54
REMARK   26  A    between atoms: _54  and  _55
REMARK   27  A    between atoms: _54  and  _57
REMARK   28  A    between atoms: _57  and  _58
REMARK   29  A    between atoms: _63  and  _64
REMARK   30  A    between atoms: _66  and  _68
REMARK   31  A    between atoms: _68  and  _69
REMARK   32  A    between atoms: _71  and  _73
REMARK   33  A    between atoms: _73  and  _74
REMARK   34  A    between atoms: _73  and  _76
REMARK   35  A    between atoms: _79  and  _81
REMARK   36  A    between atoms: _81  and  _82
REMARK   37  A    between atoms: _81  and  _84
REMARK   38  A    between atoms: _87  and  _89
REMARK   39  A    between atoms: _89  and  _90
REMARK   40  A    between atoms: _89  and  _92
REMARK   41  A    between atoms: _92  and  _93
REMARK   42  A    between atoms: _98  and  _99
REMARK   43  A    between atoms: _101  and  _103
REMARK   44  A    between atoms: _103  and  _104
REMARK   45  A    between atoms: _103  and  _106
REMARK   46  A    between atoms: _106  and  _107
REMARK   47  A    between atoms: _107  and  _108
REMARK   48  A    between atoms: _108  and  _109
REMARK   49  A    between atoms: _109  and  _110
REMARK   50  A    between atoms: _114  and  _116
REMARK   51  A    between atoms: _116  and  _117
REMARK   52  A    between atoms: _120  and  _122
REMARK   53  A    between atoms: _122  and  _123
REMARK   54  A    between atoms: _122  and  _125
REMARK   55  A    between atoms: _128  and  _130
REMARK   56  A    between atoms: _130  and  _131
REMARK   57  A    between atoms: _134  and  _136
REMARK   58  A    between atoms: _136  and  _137
REMARK   59  A    between atoms: _136  and  _139
REMARK   60  A    between atoms: _139  and  _140
REMARK   61  A    between atoms: _143  and  _145
REMARK   62  A    between atoms: _145  and  _146
REMARK   63  A    between atoms: _145  and  _148
REMARK   64  A    between atoms: _148  and  _149
REMARK   65  A    between atoms: _149  and  _150
REMARK   66  A    between atoms: _150  and  _151
REMARK   67  A    between atoms: _151  and  _152
REMARK   68  A    between atoms: _156  and  _158
REMARK   69  A    between atoms: _158  and  _159
REMARK   70  A    between atoms: _158  and  _161
REMARK   71  A    between atoms: _161  and  _162
REMARK   72  A    between atoms: _162  and  _163
REMARK   73  A    between atoms: _163  and  _164
REMARK   74  A    between atoms: _164  and  _165
REMARK   75  A    between atoms: _169  and  _171
REMARK   76  A    between atoms: _171  and  _172
REMARK   77  A    between atoms: _171  and  _174
REMARK   78  A    between atoms: _174  and  _175
REMARK   79  A    between atoms: _178  and  _180
REMARK   80  A    between atoms: _180  and  _181
REMARK   81  A    between atoms: _180  and  _183
REMARK   82  A    between atoms: _186  and  _188
REMARK   83  A    between atoms: _188  and  _189
REMARK   84  A    between atoms: _188  and  _191
REMARK   85  A    between atoms: _191  and  _192
REMARK   86  A    between atoms: _192  and  _193
REMARK   87  A    between atoms: _193  and  _194
REMARK   88  A    between atoms: _194  and  _195
REMARK   89  A    between atoms: _199  and  _201
REMARK   90  A    between atoms: _201  and  _202
REMARK   91  A    between atoms: _201  and  _204
REMARK   92  A    between atoms: _204  and  _205
REMARK   93  A    between atoms: _208  and  _210
REMARK   94  A    between atoms: _210  and  _211
REMARK   95  A    between atoms: _210  and  _213
REMARK   96  A    between atoms: _213  and  _214
REMARK   97  A    between atoms: _217  and  _219
REMARK   98  A    between atoms: _219  and  _220
REMARK   99  A    between atoms: _219  and  _222
REMARK  100  A    between atoms: _225  and  _227
REMARK  101  A    between atoms: _227  and  _228
REMARK  102  A    between atoms: _227  and  _230
REMARK  103  A    between atoms: _230  and  _231
REMARK  104  A    between atoms: _237  and  _239
REMARK  105  A    between atoms: _239  and  _240
REMARK  106  A    between atoms: _239  and  _242
REMARK  107  A    between atoms: _242  and  _243
REMARK  108  A    between atoms: _243  and  _244
REMARK  109  A    between atoms: _247  and  _249
REMARK  110  A    between atoms: _249  and  _250
REMARK  111  A    between atoms: _249  and  _252
REMARK  112  A    between atoms: _252  and  _253
REMARK  113  A    between atoms: _259  and  _261
REMARK  114  A    between atoms: _261  and  _262
REMARK  115  A    between atoms: _261  and  _264
REMARK  116  A    between atoms: _264  and  _265
REMARK  117  A    between atoms: _268  and  _270
REMARK  118  A    between atoms: _270  and  _271
REMARK  119  A    between atoms: _270  and  _273
REMARK  120  A    between atoms: _273  and  _274
REMARK  121  A    between atoms: _279  and  _281
REMARK  122  A    between atoms: _281  and  _282
REMARK  123  A    between atoms: _281  and  _284
REMARK  124  A    between atoms: _284  and  _285
REMARK  125  A    between atoms: _285  and  _286
REMARK  126  A    between atoms: _291  and  _293
REMARK  127  A    between atoms: _293  and  _294
REMARK  128  A    between atoms: _293  and  _296
REMARK  129  A    between atoms: _296  and  _297
REMARK  130  A    between atoms: _300  and  _302
REMARK  131  A    between atoms: _302  and  _303
REMARK  132  A    between atoms: _302  and  _305
REMARK  133  A    between atoms: _305  and  _306
REMARK  134  A    between atoms: _309  and  _311
REMARK  135  A    between atoms: _311  and  _312
REMARK  136  A    between atoms: _311  and  _314
REMARK  137  A    between atoms: _314  and  _315
REMARK  138  A    between atoms: _315  and  _316
REMARK  139  A    between atoms: _316  and  _317
REMARK  140  A    between atoms: _317  and  _318
REMARK  141  A    between atoms: _322  and  _324
REMARK  142  A    between atoms: _324  and  _325
REMARK  143  A    between atoms: _324  and  _327
REMARK  144  A    between atoms: _327  and  _328
REMARK  145  A    between atoms: _328  and  _329
REMARK  146  A    between atoms: _329  and  _330
REMARK  147  A    between atoms: _330  and  _331
REMARK  148  A    between atoms: _335  and  _337
REMARK  149  A    between atoms: _337  and  _338
REMARK  150  A    between atoms: _337  and  _340
REMARK  151  A    between atoms: _340  and  _341
REMARK  152  A    between atoms: _346  and  _348
REMARK  153  A    between atoms: _348  and  _349
REMARK  154  A    between atoms: _348  and  _351
REMARK  155  A    between atoms: _351  and  _352
REMARK  156  A    between atoms: _355  and  _357
REMARK  157  A    between atoms: _357  and  _358
REMARK  158  A    between atoms: _357  and  _360
REMARK  159  A    between atoms: _360  and  _361
REMARK  160  A    between atoms: _364  and  _366
REMARK  161  A    between atoms: _366  and  _367
REMARK  162  A    between atoms: _366  and  _369
REMARK  163  A    between atoms: _369  and  _370
REMARK  164  A    between atoms: _370  and  _371
REMARK  165  A    between atoms: _371  and  _372
REMARK  166  A    between atoms: _372  and  _373
REMARK  167  A    between atoms: _378  and  _379
REMARK  168  A    between atoms: _384  and  _386
REMARK  169  A    between atoms: _386  and  _387
REMARK  170  A    between atoms: _386  and  _389
REMARK  171  A    between atoms: _389  and  _390
REMARK  172  A    between atoms: _390  and  _391
REMARK  173  A    between atoms: _396  and  _398
REMARK  174  A    between atoms: _398  and  _399
REMARK  175  A    between atoms: _398  and  _401
REMARK  176  A    between atoms: _401  and  _402
REMARK  177  A    between atoms: _407  and  _409
REMARK  178  A    between atoms: _409  and  _410
REMARK  179  A    between atoms: _409  and  _412
REMARK  180  A    between atoms: _412  and  _413
REMARK  181  A    between atoms: _416  and  _418
REMARK  182  A    between atoms: _418  and  _419
REMARK  183  A    between atoms: _418  and  _421
REMARK  184  A    between atoms: _421  and  _422
REMARK  185  A    between atoms: _425  and  _427
REMARK  186  A    between atoms: _427  and  _428
REMARK  187  A    between atoms: _427  and  _430
REMARK  188  A    between atoms: _430  and  _431
REMARK  189  A    between atoms: _434  and  _436
REMARK  190  A    between atoms: _436  and  _437
REMARK  191  A    between atoms: _436  and  _439
REMARK  192  A    between atoms: _439  and  _440
REMARK  193  A    between atoms: _443  and  _445
REMARK  194  A    between atoms: _445  and  _446
REMARK  195  A    between atoms: _449  and  _451
REMARK  196  A    between atoms: _451  and  _452
REMARK  197  A    between atoms: _451  and  _454
REMARK  198  A    between atoms: _454  and  _455
REMARK  199  A    between atoms: _455  and  _457
REMARK  200  A    between atoms: _457  and  MG_558
REMARK  201  A    between atoms: _458  and  _460
REMARK  202  A    between atoms: _460  and  _461
REMARK  203  A    between atoms: _460  and  _463
REMARK  204  A    between atoms: _463  and  _464
REMARK  205  A    between atoms: _470  and  _472
REMARK  206  A    between atoms: _472  and  _473
REMARK  207  A    between atoms: _472  and  _475
REMARK  208  A    between atoms: _475  and  _476
REMARK  209  A    between atoms: _479  and  _481
REMARK  210  A    between atoms: _481  and  _482
REMARK  211  A    between atoms: _485  and  _487
REMARK  212  A    between atoms: _487  and  _488
REMARK  213  A    between atoms: _487  and  _490
REMARK  214  A    between atoms: _494  and  _495
REMARK  215  A    between atoms: _500  and  _502
REMARK  216  A    between atoms: _502  and  _503
REMARK  217  A    between atoms: _502  and  _505
REMARK  218  A    between atoms: _505  and  _506
REMARK  219  A    between atoms: _509  and  _511
REMARK  220  A    between atoms: _511  and  _512
REMARK  221  A    between atoms: _511  and  _514
REMARK  222  A    between atoms: _514  and  _515
REMARK  223  A    between atoms: _520  and  _521
REMARK  224  A    between atoms: _523  and  _525
REMARK  225  A    between atoms: _525  and  _526
REMARK  226  A    between atoms: _525  and  _528
REMARK  227  A    between atoms: _528  and  _529
REMARK  228  A    between atoms: _529  and  _530
REMARK  229  A    between atoms: _533  and  _535
REMARK  230  A    between atoms: _535  and  _536
REMARK  231  A    between atoms: _535  and  _538
REMARK  232  A    between atoms: _541  and  _543
REMARK  233  A    between atoms: _543  and  _544
REMARK  234  A    between atoms: _543  and  _546
REMARK  235  A    between atoms: _549  and  _551
REMARK  236  A    between atoms: _551  and  _552
REMARK  237  A    between atoms: _551  and  _554
REMARK  238  A    between atoms: _554  and  _555
REMARK                            x       y       z     vdW  Elec       q    Type
REMARK                         _______ _______ _______ _____ _____    ______ ____
ROOT
ATOM      1  CA  LEU A   1      -6.124  39.745   5.151  0.00  0.00    +0.133 C 
ENDROOT
BRANCH   1   2
ATOM      2  N   LEU A   1      -5.744  38.889   6.280  0.00  0.00    -0.239 NA
ATOM      3  H   LEU A   1      -5.278  37.975   6.109  0.00  0.00    +0.142 HD
ENDBRANCH   1   2
BRANCH   1   4
ATOM      4  C   LEU A   1      -7.615  39.780   4.914  0.00  0.00    +0.224 C 
ATOM      5  O   LEU A   1      -8.180  40.856   4.730  0.00  0.00    -0.287 OA
ENDBRANCH   1   4
BRANCH   1   6
ATOM      6  CB  LEU A   1      -5.401  39.429   3.845  0.00  0.00    +0.025 C 
BRANCH   6   7
ATOM      7  CG  LEU A   1      -3.916  39.091   3.963  0.00  0.00    +0.002 C 
ATOM      8  CD2 LEU A   1      -3.086  40.340   4.181  0.00  0.00    +0.000 C 
ATOM      9  CD1 LEU A   1      -3.394  38.419   2.694  0.00  0.00    +0.000 C 
ENDBRANCH   6   7
ENDBRANCH   1   6
TORSDOF 4
REMARK  Name = ../refined-set-2016/1b38/1b38_pocket.pdb
REMARK  238 active torsions:
REMARK  status: ('A' for Active; 'I' for Inactive)
REMARK    1  A    between atoms: _1  and  _3
REMARK    2  A    between atoms: _3  and  _4
REMARK    3  A    between atoms: _3  and  _6
REMARK    4  A    between atoms: _6  and  _7
REMARK    5  A    between atoms: _7  and  _8
REMARK    6  A    between atoms: _8  and  _9
REMARK    7  A    between atoms: _9  and  _10
REMARK    8  A    between atoms: _14  and  _16
REMARK    9  A    between atoms: _16  and  _17
REMARK   10  A    between atoms: _16  and  _19
REMARK   11  A    between atoms: _19  and  _20
REMARK   12  A    between atoms: _23  and  _25
REMARK   13  A    between atoms: _25  and  _26
REMARK   14  A    between atoms: _28  and  _30
REMARK   15  A    between atoms: _30  and  _31
REMARK   16  A    between atoms: _30  and  _33
REMARK   17  A    between atoms: _33  and  _34
REMARK   18  A    between atoms: _34  and  _35
REMARK   19  A    between atoms: _38  and  _40
REMARK   20  A    between atoms: _40  and  _41
REMARK   21  A    between atoms: _43  and  _45
REMARK   22  A    between atoms: _45  and  _46
REMARK   23  A    between atoms: _45  and  _48
REMARK   24  A    between atoms: _48  and  _49
REMARK   25  A    between atoms: _52  and  _54
REMARK   26  A    between atoms: _54  and  _55
REMARK   27  A    between atoms: _54  and  _57
REMARK   28  A    between atoms: _57  and  _58
REMARK   29  A    between atoms: _63  and  _64
REMARK   30  A    between atoms: _66  and  _68
REMARK   31  A    between atoms: _68  and  _69
REMARK   32  A    between atoms: _71  and  _73
REMARK   33  A    between atoms: _73  and  _74
REMARK   34  A    between atoms: _73  and  _76
REMARK   35  A    between atoms: _79  and  _81
REMARK   36  A    between atoms: _81  and  _82
REMARK   37  A    between atoms: _81  and  _84
REMARK   38  A    between atoms: _87  and  _89
REMARK   39  A    between atoms: _89  and  _90
REMARK   40  A    between atoms: _89  and  _92
REMARK   41  A    between atoms: _92  and  _93
REMARK   42  A    between atoms: _98  and  _99
REMARK   43  A    between atoms: _101  and  _103
REMARK   44  A    between atoms: _103  and  _104
REMARK   45  A    between atoms: _103  and  _106
REMARK   46  A    between atoms: _106  and  _107
REMARK   47  A    between atoms: _107  and  _108
REMARK   48  A    between atoms: _108  and  _109
REMARK   49  A    between atoms: _109  and  _110
REMARK   50  A    between atoms: _114  and  _116
REMARK   51  A    between atoms: _116  and  _117
REMARK   52  A    between atoms: _120  and  _122
REMARK   53  A    between atoms: _122  and  _123
REMARK   54  A    between atoms: _122  and  _125
REMARK   55  A    between atoms: _128  and  _130
REMARK   56  A    between atoms: _130  and  _131
REMARK   57  A    between atoms: _134  and  _136
REMARK   58  A    between atoms: _136  and  _137
REMARK   59  A    between atoms: _136  and  _139
REMARK   60  A    between atoms: _139  and  _140
REMARK   61  A    between atoms: _143  and  _145
REMARK   62  A    between atoms: _145  and  _146
REMARK   63  A    between atoms: _145  and  _148
REMARK   64  A    between atoms: _148  and  _149
REMARK   65  A    between atoms: _149  and  _150
REMARK   66  A    between atoms: _150  and  _151
REMARK   67  A    between atoms: _151  and  _152
REMARK   68  A    between atoms: _156  and  _158
REMARK   69  A    between atoms: _158  and  _159
REMARK   70  A    between atoms: _158  and  _161
REMARK   71  A    between atoms: _161  and  _162
REMARK   72  A    between atoms: _162  and  _163
REMARK   73  A    between atoms: _163  and  _164
REMARK   74  A    between atoms: _164  and  _165
REMARK   75  A    between atoms: _169  and  _171
REMARK   76  A    between atoms: _171  and  _172
REMARK   77  A    between atoms: _171  and  _174
REMARK   78  A    between atoms: _174  and  _175
REMARK   79  A    between atoms: _178  and  _180
REMARK   80  A    between atoms: _180  and  _181
REMARK   81  A    between atoms: _180  and  _183
REMARK   82  A    between atoms: _186  and  _188
REMARK   83  A    between atoms: _188  and  _189
REMARK   84  A    between atoms: _188  and  _191
REMARK   85  A    between atoms: _191  and  _192
REMARK   86  A    between atoms: _192  and  _193
REMARK   87  A    between atoms: _193  and  _194
REMARK   88  A    between atoms: _194  and  _195
REMARK   89  A    between atoms: _199  and  _201
REMARK   90  A    between atoms: _201  and  _202
REMARK   91  A    between atoms: _201  and  _204
REMARK   92  A    between atoms: _204  and  _205
REMARK   93  A    between atoms: _208  and  _210
REMARK   94  A    between atoms: _210  and  _211
REMARK   95  A    between atoms: _210  and  _213
REMARK   96  A    between atoms: _213  and  _214
REMARK   97  A    between atoms: _217  and  _219
REMARK   98  A    between atoms: _219  and  _220
REMARK   99  A    between atoms: _219  and  _222
REMARK  100  A    between atoms: _225  and  _227
REMARK  101  A    between atoms: _227  and  _228
REMARK  102  A    between atoms: _227  and  _230
REMARK  103  A    between atoms: _230  and  _231
REMARK  104  A    between atoms: _237  and  _239
REMARK  105  A    between atoms: _239  and  _240
REMARK  106  A    between atoms: _239  and  _242
REMARK  107  A    between atoms: _242  and  _243
REMARK  108  A    between atoms: _243  and  _244
REMARK  109  A    between atoms: _247  and  _249
REMARK  110  A    between atoms: _249  and  _250
REMARK  111  A    between atoms: _249  and  _252
REMARK  112  A    between atoms: _252  and  _253
REMARK  113  A    between atoms: _259  and  _261
REMARK  114  A    between atoms: _261  and  _262
REMARK  115  A    between atoms: _261  and  _264
REMARK  116  A    between atoms: _264  and  _265
REMARK  117  A    between atoms: _268  and  _270
REMARK  118  A    between atoms: _270  and  _271
REMARK  119  A    between atoms: _270  and  _273
REMARK  120  A    between atoms: _273  and  _274
REMARK  121  A    between atoms: _279  and  _281
REMARK  122  A    between atoms: _281  and  _282
REMARK  123  A    between atoms: _281  and  _284
REMARK  124  A    between atoms: _284  and  _285
REMARK  125  A    between atoms: _285  and  _286
REMARK  126  A    between atoms: _291  and  _293
REMARK  127  A    between atoms: _293  and  _294
REMARK  128  A    between atoms: _293  and  _296
REMARK  129  A    between atoms: _296  and  _297
REMARK  130  A    between atoms: _300  and  _302
REMARK  131  A    between atoms: _302  and  _303
REMARK  132  A    between atoms: _302  and  _305
REMARK  133  A    between atoms: _305  and  _306
REMARK  134  A    between atoms: _309  and  _311
REMARK  135  A    between atoms: _311  and  _312
REMARK  136  A    between atoms: _311  and  _314
REMARK  137  A    between atoms: _314  and  _315
REMARK  138  A    between atoms: _315  and  _316
REMARK  139  A    between atoms: _316  and  _317
REMARK  140  A    between atoms: _317  and  _318
REMARK  141  A    between atoms: _322  and  _324
REMARK  142  A    between atoms: _324  and  _325
REMARK  143  A    between atoms: _324  and  _327
REMARK  144  A    between atoms: _327  and  _328
REMARK  145  A    between atoms: _328  and  _329
REMARK  146  A    between atoms: _329  and  _330
REMARK  147  A    between atoms: _330  and  _331
REMARK  148  A    between atoms: _335  and  _337
REMARK  149  A    between atoms: _337  and  _338
REMARK  150  A    between atoms: _337  and  _340
REMARK  151  A    between atoms: _340  and  _341
REMARK  152  A    between atoms: _346  and  _348
REMARK  153  A    between atoms: _348  and  _349
REMARK  154  A    between atoms: _348  and  _351
REMARK  155  A    between atoms: _351  and  _352
REMARK  156  A    between atoms: _355  and  _357
REMARK  157  A    between atoms: _357  and  _358
REMARK  158  A    between atoms: _357  and  _360
REMARK  159  A    between atoms: _360  and  _361
REMARK  160  A    between atoms: _364  and  _366
REMARK  161  A    between atoms: _366  and  _367
REMARK  162  A    between atoms: _366  and  _369
REMARK  163  A    between atoms: _369  and  _370
REMARK  164  A    between atoms: _370  and  _371
REMARK  165  A    between atoms: _371  and  _372
REMARK  166  A    between atoms: _372  and  _373
REMARK  167  A    between atoms: _378  and  _379
REMARK  168  A    between atoms: _384  and  _386
REMARK  169  A    between atoms: _386  and  _387
REMARK  170  A    between atoms: _386  and  _389
REMARK  171  A    between atoms: _389  and  _390
REMARK  172  A    between atoms: _390  and  _391
REMARK  173  A    between atoms: _396  and  _398
REMARK  174  A    between atoms: _398  and  _399
REMARK  175  A    between atoms: _398  and  _401
REMARK  176  A    between atoms: _401  and  _402
REMARK  177  A    between atoms: _407  and  _409
REMARK  178  A    between atoms: _409  and  _410
REMARK  179  A    between atoms: _409  and  _412
REMARK  180  A    between atoms: _412  and  _413
REMARK  181  A    between atoms: _416  and  _418
REMARK  182  A    between atoms: _418  and  _419
REMARK  183  A    between atoms: _418  and  _421
REMARK  184  A    between atoms: _421  and  _422
REMARK  185  A    between atoms: _425  and  _427
REMARK  186  A    between atoms: _427  and  _428
REMARK  187  A    between atoms: _427  and  _430
REMARK  188  A    between atoms: _430  and  _431
REMARK  189  A    between atoms: _434  and  _436
REMARK  190  A    between atoms: _436  and  _437
REMARK  191  A    between atoms: _436  and  _439
REMARK  192  A    between atoms: _439  and  _440
REMARK  193  A    between atoms: _443  and  _445
REMARK  194  A    between atoms: _445  and  _446
REMARK  195  A    between atoms: _449  and  _451
REMARK  196  A    between atoms: _451  and  _452
REMARK  197  A    between atoms: _451  and  _454
REMARK  198  A    between atoms: _454  and  _455
REMARK  199  A    between atoms: _455  and  _457
REMARK  200  A    between atoms: _457  and  MG_558
REMARK  201  A    between atoms: _458  and  _460
REMARK  202  A    between atoms: _460  and  _461
REMARK  203  A    between atoms: _460  and  _463
REMARK  204  A    between atoms: _463  and  _464
REMARK  205  A    between atoms: _470  and  _472
REMARK  206  A    between atoms: _472  and  _473
REMARK  207  A    between atoms: _472  and  _475
REMARK  208  A    between atoms: _475  and  _476
REMARK  209  A    between atoms: _479  and  _481
REMARK  210  A    between atoms: _481  and  _482
REMARK  211  A    between atoms: _485  and  _487
REMARK  212  A    between atoms: _487  and  _488
REMARK  213  A    between atoms: _487  and  _490
REMARK  214  A    between atoms: _494  and  _495
REMARK  215  A    between atoms: _500  and  _502
REMARK  216  A    between atoms: _502  and  _503
REMARK  217  A    between atoms: _502  and  _505
REMARK  218  A    between atoms: _505  and  _506
REMARK  219  A    between atoms: _509  and  _511
REMARK  220  A    between atoms: _511  and  _512
REMARK  221  A    between atoms: _511  and  _514
REMARK  222  A    between atoms: _514  and  _515
REMARK  223  A    between atoms: _520  and  _521
REMARK  224  A    between atoms: _523  and  _525
REMARK  225  A    between atoms: _525  and  _526
REMARK  226  A    between atoms: _525  and  _528
REMARK  227  A    between atoms: _528  and  _529
REMARK  228  A    between atoms: _529  and  _530
REMARK  229  A    between atoms: _533  and  _535
REMARK  230  A    between atoms: _535  and  _536
REMARK  231  A    between atoms: _535  and  _538
REMARK  232  A    between atoms: _541  and  _543
REMARK  233  A    between atoms: _543  and  _544
REMARK  234  A    between atoms: _543  and  _546
REMARK  235  A    between atoms: _549  and  _551
REMARK  236  A    between atoms: _551  and  _552
REMARK  237  A    between atoms: _551  and  _554
REMARK  238  A    between atoms: _554  and  _555
REMARK                            x       y       z     vdW  Elec       q    Type
REMARK                         _______ _______ _______ _____ _____    ______ ____
ROOT
ATOM      1  CA  HIS A   7       7.585  30.405   4.867  0.00  0.00    +0.155 C 
ENDROOT
BRANCH   1   4
ATOM      2  C   LEU A   6       5.770  31.648   5.606  0.00  0.00    +0.241 C 
ATOM      3  O   LEU A   6       5.003  30.680   5.659  0.00  0.00    -0.273 OA
ATOM      4  N   HIS A   7       7.058  31.635   5.389  0.00  0.00    -0.297 N 
ATOM      5  H   HIS A   7       7.661  32.460   5.581  0.00  0.00    +0.150 HD
BRANCH   2   6
ATOM      6  CA  LEU A   6       5.194  33.013   6.008  0.00  0.00    +0.149 C 
BRANCH   6   8
ATOM      7  C   PHE A   5       3.341  33.775   4.742  0.00  0.00    +0.241 C 
ATOM      8  N   LEU A   6       3.790  32.826   5.572  0.00  0.00    -0.297 N 
ATOM      9  H   LEU A   6       3.204  32.026   5.884  0.00  0.00    +0.150 HD
ATOM     10  O   PHE A   5       3.978  34.755   4.317  0.00  0.00    -0.273 OA
BRANCH   7  11
ATOM     11  CA  PHE A   5       1.918  33.635   4.231  0.00  0.00    +0.153 C 
BRANCH  11  14
ATOM     12  C   GLU A   4       0.400  35.291   5.223  0.00  0.00    +0.241 C 
ATOM     13  O   GLU A   4       0.236  34.518   6.195  0.00  0.00    -0.273 OA
ATOM     14  N   PHE A   5       1.218  34.903   4.314  0.00  0.00    -0.297 N 
ATOM     15  H   PHE A   5       1.401  35.578   3.545  0.00  0.00    +0.150 HD
BRANCH  12  16
ATOM     16  CA  GLU A   4      -0.357  36.605   5.187  0.00  0.00    +0.149 C 
BRANCH  16  18
ATOM     17  C   PHE A   3      -2.490  35.446   5.168  0.00  0.00    +0.241 C 
ATOM     18  N   GLU A   4      -1.688  36.355   5.743  0.00  0.00    -0.297 N 
ATOM     19  H   GLU A   4      -2.011  36.880   6.581  0.00  0.00    +0.150 HD
ATOM     20  O   PHE A   3      -2.267  34.759   4.200  0.00  0.00    -0.273 OA
BRANCH  17  21
ATOM     21  CA  PHE A   3      -3.714  35.096   6.019  0.00  0.00    +0.153 C 
BRANCH  21  24
ATOM     22  C   VAL A   2      -5.965  35.193   5.132  0.00  0.00    +0.241 C 
ATOM     23  O   VAL A   2      -6.232  36.294   5.641  0.00  0.00    -0.273 OA
ATOM     24  N   PHE A   3      -4.788  34.561   5.236  0.00  0.00    -0.297 N 
ATOM     25  H   PHE A   3      -4.651  33.660   4.736  0.00  0.00    +0.150 HD
BRANCH  22  26
ATOM     26  CA  VAL A   2      -7.023  34.428   4.345  0.00  0.00    +0.148 C 
BRANCH  26  29
ATOM     27  C   LEU A   1      -8.354  32.914   5.688  0.00  0.00    +0.238 C 
ATOM     28  O   LEU A   1      -7.681  31.899   5.396  0.00  0.00    -0.274 OA
ATOM     29  N   VAL A   2      -8.163  34.134   5.217  0.00  0.00    -0.297 N 
ATOM     30  H   VAL A   2      -8.829  34.893   5.468  0.00  0.00    +0.150 HD
BRANCH  27  31
ATOM     31  CA  LEU A   1      -9.607  32.775   6.567  0.00  0.00    +0.145 C 
BRANCH  31  32
ATOM     32  N   LEU A   1     -10.375  31.646   6.037  0.00  0.00    -0.238 NA
ATOM     33  H   LEU A   1     -10.076  30.665   6.209  0.00  0.00    +0.142 HD
ENDBRANCH  31  32
BRANCH  31  34
ATOM     34  CB  LEU A   1      -9.170  32.617   8.028  0.00  0.00    +0.026 C 
BRANCH  34  35
ATOM     35  CG  LEU A   1     -10.211  32.217   9.046  0.00  0.00    +0.002 C 
ATOM     36  CD2 LEU A   1      -9.578  32.104  10.439  0.00  0.00    +0.000 C 
ATOM     37  CD1 LEU A   1     -11.359  33.211   9.090  0.00  0.00    +0.000 C 
ENDBRANCH  34  35
ENDBRANCH  31  34
ENDBRANCH  27  31
ENDBRANCH  26  29
BRANCH  26  38
ATOM     38  CB  VAL A   2      -7.406  35.309   3.131  0.00  0.00    +0.027 C 
ATOM     39  CG2 VAL A   2      -8.576  34.664   2.347  0.00  0.00    +0.002 C 
ATOM     40  CG1 VAL A   2      -6.179  35.417   2.259  0.00  0.00    +0.002 C 
ENDBRANCH  26  38
ENDBRANCH  22  26
ENDBRANCH  21  24
BRANCH  21  41
ATOM     41  CB  PHE A   3      -3.139  34.146   7.119  0.00  0.00    +0.055 C 
BRANCH  41  42
ATOM     42  CG  PHE A   3      -4.069  33.906   8.282  0.00  0.00    -0.020 A 
ATOM     43  CD2 PHE A   3      -4.256  34.877   9.262  0.00  0.00    -0.004 A 
ATOM     44  CE2 PHE A   3      -5.108  34.657  10.305  0.00  0.00    -0.000 A 
ATOM     45  CZ  PHE A   3      -5.791  33.450  10.415  0.00  0.00    -0.000 A 
ATOM     46  CE1 PHE A   3      -5.613  32.439   9.454  0.00  0.00    -0.000 A 
ATOM     47  CD1 PHE A   3      -4.722  32.709   8.435  0.00  0.00    -0.004 A 
ENDBRANCH  41  42
ENDBRANCH  21  41
ENDBRANCH  17  21
ENDBRANCH  16  18
BRANCH  16  48
ATOM     48  CB  GLU A   4       0.215  37.595   6.267  0.00  0.00    +0.041 C 
BRANCH  48  49
ATOM     49  CG  GLU A   4       1.706  37.674   6.252  0.00  0.00    +0.116 C 
BRANCH  49  50
ATOM     50  CD  GLU A   4       2.303  38.579   7.325  0.00  0.00    +0.365 C 
ATOM     51  OE2 GLU A   4       1.788  38.975   8.362  0.00  0.00    -0.246 OA
ATOM     52  OE1 GLU A   4       3.455  38.921   7.080  0.00  0.00    -0.246 OA
ENDBRANCH  49  50
ENDBRANCH  48  49
ENDBRANCH  16  48
ENDBRANCH  12  16
ENDBRANCH  11  14
BRANCH  11  53
ATOM     53  CB  PHE A   5       2.040  33.262   2.756  0.00  0.00    +0.055 C 
BRANCH  53  54
ATOM     54  CG  PHE A   5       2.873  32.024   2.594  0.00  0.00    -0.020 A 
ATOM     55  CD2 PHE A   5       2.299  30.751   2.751  0.00  0.00    -0.004 A 
ATOM     56  CE2 PHE A   5       3.060  29.628   2.601  0.00  0.00    -0.000 A 
ATOM     57  CZ  PHE A   5       4.381  29.740   2.251  0.00  0.00    -0.000 A 
ATOM     58  CE1 PHE A   5       4.964  30.982   2.088  0.00  0.00    -0.000 A 
ATOM     59  CD1 PHE A   5       4.202  32.125   2.226  0.00  0.00    -0.004 A 
ENDBRANCH  53  54
ENDBRANCH  11  53
ENDBRANCH   7  11
ENDBRANCH   6   8
BRANCH   6  60
ATOM     60  CB  LEU A   6       5.396  33.341   7.475  0.00  0.00    +0.029 C 
BRANCH  60  61
ATOM     61  CG  LEU A   6       5.226  34.830   7.790  0.00  0.00    +0.002 C 
ATOM     62  CD2 LEU A   6       6.221  35.332   8.844  0.00  0.00    +0.000 C 
ATOM     63  CD1 LEU A   6       3.807  35.034   8.320  0.00  0.00    +0.000 C 
ENDBRANCH  60  61
ENDBRANCH   6  60
ENDBRANCH   2   6
ENDBRANCH   1   4
BRANCH   1  64
ATOM     64  C   HIS A   7       7.870  29.322   5.835  0.00  0.00    +0.241 C 
ATOM     65  N   GLN A   8       7.926  29.531   7.129  0.00  0.00    -0.297 N 
ATOM     66  H   GLN A   8       7.751  30.481   7.514  0.00  0.00    +0.150 HD
ATOM     67  O   HIS A   7       8.200  28.278   5.280  0.00  0.00    -0.273 OA
BRANCH  65  68
ATOM     68  CA  GLN A   8       8.234  28.429   8.018  0.00  0.00    +0.149 C 
BRANCH  68  69
ATOM     69  C   GLN A   8       7.665  28.710   9.392  0.00  0.00    +0.241 C 
ATOM     70  N   ASP A   9       7.415  27.650  10.128  0.00  0.00    -0.297 N 
ATOM     71  H   ASP A   9       7.584  26.708   9.721  0.00  0.00    +0.150 HD
ATOM     72  O   GLN A   8       7.581  29.860   9.792  0.00  0.00    -0.273 OA
BRANCH  70  73
ATOM     73  CA  ASP A   9       6.914  27.743  11.483  0.00  0.00    +0.160 C 
BRANCH  73  74
ATOM     74  C   ASP A   9       8.113  27.381  12.368  0.00  0.00    +0.241 C 
ATOM     75  N   LEU A  10       7.897  27.700  13.642  0.00  0.00    -0.297 N 
ATOM     76  H   LEU A  10       6.981  28.091  13.939  0.00  0.00    +0.150 HD
ATOM     77  O   ASP A   9       9.107  26.818  11.865  0.00  0.00    -0.273 OA
BRANCH  75  78
ATOM     78  CA  LEU A  10       8.963  27.493  14.615  0.00  0.00    +0.149 C 
BRANCH  78  79
ATOM     79  C   LEU A  10       9.173  26.018  14.927  0.00  0.00    +0.241 C 
ATOM     80  O   LEU A  10      10.293  25.643  15.327  0.00  0.00    -0.273 OA
ATOM     81  N   LYS A  11       8.194  25.145  14.783  0.00  0.00    -0.297 N 
ATOM     82  H   LYS A  11       7.250  25.436  14.457  0.00  0.00    +0.150 HD
BRANCH  81  83
ATOM     83  CA  LYS A  11       8.495  23.747  15.103  0.00  0.00    +0.149 C 
BRANCH  83  84
ATOM     84  C   LYS A  11       9.521  23.215  14.104  0.00  0.00    +0.241 C 
ATOM     85  O   LYS A  11      10.523  22.548  14.400  0.00  0.00    -0.273 OA
ATOM     86  N   LYS A  12       9.196  23.459  12.829  0.00  0.00    -0.298 N 
ATOM     87  H   LYS A  12       8.289  23.915  12.602  0.00  0.00    +0.150 HD
BRANCH  86  88
ATOM     88  CA  LYS A  12      10.114  23.085  11.756  0.00  0.00    +0.137 C 
BRANCH  88  89
ATOM     89  C   LYS A  12      11.452  23.739  11.955  0.00  0.00    +0.227 C 
ATOM     90  O   LYS A  12      12.471  23.088  11.707  0.00  0.00    -0.286 OA
ENDBRANCH  88  89
BRANCH  88  91
ATOM     91  CB  LYS A  12       9.512  23.495  10.389  0.00  0.00    +0.028 C 
BRANCH  91  92
ATOM     92  CG  LYS A  12       8.436  22.518   9.935  0.00  0.00    -0.000 C 
BRANCH  92  93
ATOM     93  CD  LYS A  12       7.954  22.818   8.504  0.00  0.00    -0.024 C 
BRANCH  93  94
ATOM     94  CE  LYS A  12       6.446  22.463   8.436  0.00  0.00    -0.086 C 
BRANCH  94  95
ATOM     95  NZ  LYS A  12       5.885  22.939   7.109  0.00  0.00    +0.380 N 
ATOM     96  HZ1 LYS A  12       4.873  22.704   7.057  0.00  0.00    -0.089 HD
ATOM     97  HZ2 LYS A  12       6.007  23.969   7.032  0.00  0.00    -0.089 HD
ATOM     98  HZ3 LYS A  12       6.392  22.470   6.331  0.00  0.00    -0.089 HD
ENDBRANCH  94  95
ENDBRANCH  93  94
ENDBRANCH  92  93
ENDBRANCH  91  92
ENDBRANCH  88  91
ENDBRANCH  86  88
ENDBRANCH  83  84
BRANCH  83  99
ATOM     99  CB  LYS A  11       7.246  22.878  15.103  0.00  0.00    +0.029 C 
BRANCH  99 100
ATOM    100  CG  LYS A  11       7.535  21.428  15.401  0.00  0.00    +0.000 C 
BRANCH 100 101
ATOM    101  CD  LYS A  11       8.178  21.220  16.761  0.00  0.00    -0.024 C 
BRANCH 101 102
ATOM    102  CE  LYS A  11       8.006  19.721  17.157  0.00  0.00    -0.086 C 
BRANCH 102 103
ATOM    103  NZ  LYS A  11       8.580  19.424  18.530  0.00  0.00    +0.380 N 
ATOM    104  HZ1 LYS A  11       8.093  20.006  19.241  0.00  0.00    -0.089 HD
ATOM    105  HZ2 LYS A  11       8.443  18.417  18.751  0.00  0.00    -0.089 HD
ATOM    106  HZ3 LYS A  11       9.596  19.647  18.535  0.00  0.00    -0.089 HD
ENDBRANCH 102 103
ENDBRANCH 101 102
ENDBRANCH 100 101
ENDBRANCH  99 100
ENDBRANCH  83  99
ENDBRANCH  81  83
ENDBRANCH  78  79
BRANCH  78 107
ATOM    107  CB  LEU A  10       8.747  28.385  15.837  0.00  0.00    +0.029 C 
BRANCH 107 108
ATOM    108  CG  LEU A  10       9.794  28.308  16.974  0.00  0.00    +0.002 C 
ATOM    109  CD2 LEU A  10       9.263  28.936  18.283  0.00  0.00    +0.000 C 
ATOM    110  CD1 LEU A  10      11.063  28.997  16.529  0.00  0.00    +0.000 C 
ENDBRANCH 107 108
ENDBRANCH  78 107
ENDBRANCH  75  78
ENDBRANCH  73  74
BRANCH  73 111
ATOM    111  CB  ASP A   9       5.707  26.907  11.798  0.00  0.00    +0.143 C 
BRANCH 111 112
ATOM    112  CG  ASP A   9       5.950  25.409  11.838  0.00  0.00    +0.367 C 
ATOM    113  OD2 ASP A   9       6.883  24.877  12.492  0.00  0.00    -0.246 OA
ATOM    114  OD1 ASP A   9       5.111  24.783  11.158  0.00  0.00    -0.246 OA
ENDBRANCH 111 112
ENDBRANCH  73 111
ENDBRANCH  70  73
ENDBRANCH  68  69
BRANCH  68 115
ATOM    115  CB  GLN A   8       9.763  28.284   8.173  0.00  0.00    +0.039 C 
BRANCH 115 116
ATOM    116  CG  GLN A   8       9.981  26.941   8.880  0.00  0.00    +0.087 C 
BRANCH 116 117
ATOM    117  CD  GLN A   8      11.377  26.423   8.854  0.00  0.00    +0.219 C 
ATOM    118  NE2 GLN A   8      12.417  27.037   9.351  0.00  0.00    -0.329 N 
ATOM    119 HE21 GLN A   8      12.302  27.956   9.823  0.00  0.00    +0.145 HD
ATOM    120 HE22 GLN A   8      13.361  26.607   9.275  0.00  0.00    +0.145 HD
ATOM    121  OE1 GLN A   8      11.487  25.322   8.284  0.00  0.00    -0.275 OA
ENDBRANCH 116 117
ENDBRANCH 115 116
ENDBRANCH  68 115
ENDBRANCH  65  68
ENDBRANCH   1  64
BRANCH   1 122
ATOM    122  CB  HIS A   7       8.820  30.682   3.998  0.00  0.00    +0.076 C 
BRANCH 122 123
ATOM    123  CG  HIS A   7       8.528  31.280   2.645  0.00  0.00    +0.082 A 
ATOM    124  ND1 HIS A   7       8.289  32.647   2.472  0.00  0.00    -0.227 NA
ATOM    125  CE1 HIS A   7       8.105  32.828   1.167  0.00  0.00    +0.199 A 
ATOM    126  NE2 HIS A   7       8.255  31.699   0.472  0.00  0.00    -0.221 NA
ATOM    127  CD2 HIS A   7       8.517  30.709   1.421  0.00  0.00    +0.115 A 
ENDBRANCH 122 123
ENDBRANCH   1 122
TORSDOF 55
REMARK  Name = ../refined-set-2016/1b38/1b38_pocket.pdb
REMARK  238 active torsions:
REMARK  status: ('A' for Active; 'I' for Inactive)
REMARK    1  A    between atoms: _1  and  _3
REMARK    2  A    between atoms: _3  and  _4
REMARK    3  A    between atoms: _3  and  _6
REMARK    4  A    between atoms: _6  and  _7
REMARK    5  A    between atoms: _7  and  _8
REMARK    6  A    between atoms: _8  and  _9
REMARK    7  A    between atoms: _9  and  _10
REMARK    8  A    between atoms: _14  and  _16
REMARK    9  A    between atoms: _16  and  _17
REMARK   10  A    between atoms: _16  and  _19
REMARK   11  A    between atoms: _19  and  _20
REMARK   12  A    between atoms: _23  and  _25
REMARK   13  A    between atoms: _25  and  _26
REMARK   14  A    between atoms: _28  and  _30
REMARK   15  A    between atoms: _30  and  _31
REMARK   16  A    between atoms: _30  and  _33
REMARK   17  A    between atoms: _33  and  _34
REMARK   18  A    between atoms: _34  and  _35
REMARK   19  A    between atoms: _38  and  _40
REMARK   20  A    between atoms: _40  and  _41
REMARK   21  A    between atoms: _43  and  _45
REMARK   22  A    between atoms: _45  and  _46
REMARK   23  A    between atoms: _45  and  _48
REMARK   24  A    between atoms: _48  and  _49
REMARK   25  A    between atoms: _52  and  _54
REMARK   26  A    between atoms: _54  and  _55
REMARK   27  A    between atoms: _54  and  _57
REMARK   28  A    between atoms: _57  and  _58
REMARK   29  A    between atoms: _63  and  _64
REMARK   30  A    between atoms: _66  and  _68
REMARK   31  A    between atoms: _68  and  _69
REMARK   32  A    between atoms: _71  and  _73
REMARK   33  A    between atoms: _73  and  _74
REMARK   34  A    between atoms: _73  and  _76
REMARK   35  A    between atoms: _79  and  _81
REMARK   36  A    between atoms: _81  and  _82
REMARK   37  A    between atoms: _81  and  _84
REMARK   38  A    between atoms: _87  and  _89
REMARK   39  A    between atoms: _89  and  _90
REMARK   40  A    between atoms: _89  and  _92
REMARK   41  A    between atoms: _92  and  _93
REMARK   42  A    between atoms: _98  and  _99
REMARK   43  A    between atoms: _101  and  _103
REMARK   44  A    between atoms: _103  and  _104
REMARK   45  A    between atoms: _103  and  _106
REMARK   46  A    between atoms: _106  and  _107
REMARK   47  A    between atoms: _107  and  _108
REMARK   48  A    between atoms: _108  and  _109
REMARK   49  A    between atoms: _109  and  _110
REMARK   50  A    between atoms: _114  and  _116
REMARK   51  A    between atoms: _116  and  _117
REMARK   52  A    between atoms: _120  and  _122
REMARK   53  A    between atoms: _122  and  _123
REMARK   54  A    between atoms: _122  and  _125
REMARK   55  A    between atoms: _128  and  _130
REMARK   56  A    between atoms: _130  and  _131
REMARK   57  A    between atoms: _134  and  _136
REMARK   58  A    between atoms: _136  and  _137
REMARK   59  A    between atoms: _136  and  _139
REMARK   60  A    between atoms: _139  and  _140
REMARK   61  A    between atoms: _143  and  _145
REMARK   62  A    between atoms: _145  and  _146
REMARK   63  A    between atoms: _145  and  _148
REMARK   64  A    between atoms: _148  and  _149
REMARK   65  A    between atoms: _149  and  _150
REMARK   66  A    between atoms: _150  and  _151
REMARK   67  A    between atoms: _151  and  _152
REMARK   68  A    between atoms: _156  and  _158
REMARK   69  A    between atoms: _158  and  _159
REMARK   70  A    between atoms: _158  and  _161
REMARK   71  A    between atoms: _161  and  _162
REMARK   72  A    between atoms: _162  and  _163
REMARK   73  A    between atoms: _163  and  _164
REMARK   74  A    between atoms: _164  and  _165
REMARK   75  A    between atoms: _169  and  _171
REMARK   76  A    between atoms: _171  and  _172
REMARK   77  A    between atoms: _171  and  _174
REMARK   78  A    between atoms: _174  and  _175
REMARK   79  A    between atoms: _178  and  _180
REMARK   80  A    between atoms: _180  and  _181
REMARK   81  A    between atoms: _180  and  _183
REMARK   82  A    between atoms: _186  and  _188
REMARK   83  A    between atoms: _188  and  _189
REMARK   84  A    between atoms: _188  and  _191
REMARK   85  A    between atoms: _191  and  _192
REMARK   86  A    between atoms: _192  and  _193
REMARK   87  A    between atoms: _193  and  _194
REMARK   88  A    between atoms: _194  and  _195
REMARK   89  A    between atoms: _199  and  _201
REMARK   90  A    between atoms: _201  and  _202
REMARK   91  A    between atoms: _201  and  _204
REMARK   92  A    between atoms: _204  and  _205
REMARK   93  A    between atoms: _208  and  _210
REMARK   94  A    between atoms: _210  and  _211
REMARK   95  A    between atoms: _210  and  _213
REMARK   96  A    between atoms: _213  and  _214
REMARK   97  A    between atoms: _217  and  _219
REMARK   98  A    between atoms: _219  and  _220
REMARK   99  A    between atoms: _219  and  _222
REMARK  100  A    between atoms: _225  and  _227
REMARK  101  A    between atoms: _227  and  _228
REMARK  102  A    between atoms: _227  and  _230
REMARK  103  A    between atoms: _230  and  _231
REMARK  104  A    between atoms: _237  and  _239
REMARK  105  A    between atoms: _239  and  _240
REMARK  106  A    between atoms: _239  and  _242
REMARK  107  A    between atoms: _242  and  _243
REMARK  108  A    between atoms: _243  and  _244
REMARK  109  A    between atoms: _247  and  _249
REMARK  110  A    between atoms: _249  and  _250
REMARK  111  A    between atoms: _249  and  _252
REMARK  112  A    between atoms: _252  and  _253
REMARK  113  A    between atoms: _259  and  _261
REMARK  114  A    between atoms: _261  and  _262
REMARK  115  A    between atoms: _261  and  _264
REMARK  116  A    between atoms: _264  and  _265
REMARK  117  A    between atoms: _268  and  _270
REMARK  118  A    between atoms: _270  and  _271
REMARK  119  A    between atoms: _270  and  _273
REMARK  120  A    between atoms: _273  and  _274
REMARK  121  A    between atoms: _279  and  _281
REMARK  122  A    between atoms: _281  and  _282
REMARK  123  A    between atoms: _281  and  _284
REMARK  124  A    between atoms: _284  and  _285
REMARK  125  A    between atoms: _285  and  _286
REMARK  126  A    between atoms: _291  and  _293
REMARK  127  A    between atoms: _293  and  _294
REMARK  128  A    between atoms: _293  and  _296
REMARK  129  A    between atoms: _296  and  _297
REMARK  130  A    between atoms: _300  and  _302
REMARK  131  A    between atoms: _302  and  _303
REMARK  132  A    between atoms: _302  and  _305
REMARK  133  A    between atoms: _305  and  _306
REMARK  134  A    between atoms: _309  and  _311
REMARK  135  A    between atoms: _311  and  _312
REMARK  136  A    between atoms: _311  and  _314
REMARK  137  A    between atoms: _314  and  _315
REMARK  138  A    between atoms: _315  and  _316
REMARK  139  A    between atoms: _316  and  _317
REMARK  140  A    between atoms: _317  and  _318
REMARK  141  A    between atoms: _322  and  _324
REMARK  142  A    between atoms: _324  and  _325
REMARK  143  A    between atoms: _324  and  _327
REMARK  144  A    between atoms: _327  and  _328
REMARK  145  A    between atoms: _328  and  _329
REMARK  146  A    between atoms: _329  and  _330
REMARK  147  A    between atoms: _330  and  _331
REMARK  148  A    between atoms: _335  and  _337
REMARK  149  A    between atoms: _337  and  _338
REMARK  150  A    between atoms: _337  and  _340
REMARK  151  A    between atoms: _340  and  _341
REMARK  152  A    between atoms: _346  and  _348
REMARK  153  A    between atoms: _348  and  _349
REMARK  154  A    between atoms: _348  and  _351
REMARK  155  A    between atoms: _351  and  _352
REMARK  156  A    between atoms: _355  and  _357
REMARK  157  A    between atoms: _357  and  _358
REMARK  158  A    between atoms: _357  and  _360
REMARK  159  A    between atoms: _360  and  _361
REMARK  160  A    between atoms: _364  and  _366
REMARK  161  A    between atoms: _366  and  _367
REMARK  162  A    between atoms: _366  and  _369
REMARK  163  A    between atoms: _369  and  _370
REMARK  164  A    between atoms: _370  and  _371
REMARK  165  A    between atoms: _371  and  _372
REMARK  166  A    between atoms: _372  and  _373
REMARK  167  A    between atoms: _378  and  _379
REMARK  168  A    between atoms: _384  and  _386
REMARK  169  A    between atoms: _386  and  _387
REMARK  170  A    between atoms: _386  and  _389
REMARK  171  A    between atoms: _389  and  _390
REMARK  172  A    between atoms: _390  and  _391
REMARK  173  A    between atoms: _396  and  _398
REMARK  174  A    between atoms: _398  and  _399
REMARK  175  A    between atoms: _398  and  _401
REMARK  176  A    between atoms: _401  and  _402
REMARK  177  A    between atoms: _407  and  _409
REMARK  178  A    between atoms: _409  and  _410
REMARK  179  A    between atoms: _409  and  _412
REMARK  180  A    between atoms: _412  and  _413
REMARK  181  A    between atoms: _416  and  _418
REMARK  182  A    between atoms: _418  and  _419
REMARK  183  A    between atoms: _418  and  _421
REMARK  184  A    between atoms: _421  and  _422
REMARK  185  A    between atoms: _425  and  _427
REMARK  186  A    between atoms: _427  and  _428
REMARK  187  A    between atoms: _427  and  _430
REMARK  188  A    between atoms: _430  and  _431
REMARK  189  A    between atoms: _434  and  _436
REMARK  190  A    between atoms: _436  and  _437
REMARK  191  A    between atoms: _436  and  _439
REMARK  192  A    between atoms: _439  and  _440
REMARK  193  A    between atoms: _443  and  _445
REMARK  194  A    between atoms: _445  and  _446
REMARK  195  A    between atoms: _449  and  _451
REMARK  196  A    between atoms: _451  and  _452
REMARK  197  A    between atoms: _451  and  _454
REMARK  198  A    between atoms: _454  and  _455
REMARK  199  A    between atoms: _455  and  _457
REMARK  200  A    between atoms: _457  and  MG_558
REMARK  201  A    between atoms: _458  and  _460
REMARK  202  A    between atoms: _460  and  _461
REMARK  203  A    between atoms: _460  and  _463
REMARK  204  A    between atoms: _463  and  _464
REMARK  205  A    between atoms: _470  and  _472
REMARK  206  A    between atoms: _472  and  _473
REMARK  207  A    between atoms: _472  and  _475
REMARK  208  A    between atoms: _475  and  _476
REMARK  209  A    between atoms: _479  and  _481
REMARK  210  A    between atoms: _481  and  _482
REMARK  211  A    between atoms: _485  and  _487
REMARK  212  A    between atoms: _487  and  _488
REMARK  213  A    between atoms: _487  and  _490
REMARK  214  A    between atoms: _494  and  _495
REMARK  215  A    between atoms: _500  and  _502
REMARK  216  A    between atoms: _502  and  _503
REMARK  217  A    between atoms: _502  and  _505
REMARK  218  A    between atoms: _505  and  _506
REMARK  219  A    between atoms: _509  and  _511
REMARK  220  A    between atoms: _511  and  _512
REMARK  221  A    between atoms: _511  and  _514
REMARK  222  A    between atoms: _514  and  _515
REMARK  223  A    between atoms: _520  and  _521
REMARK  224  A    between atoms: _523  and  _525
REMARK  225  A    between atoms: _525  and  _526
REMARK  226  A    between atoms: _525  and  _528
REMARK  227  A    between atoms: _528  and  _529
REMARK  228  A    between atoms: _529  and  _530
REMARK  229  A    between atoms: _533  and  _535
REMARK  230  A    between atoms: _535  and  _536
REMARK  231  A    between atoms: _535  and  _538
REMARK  232  A    between atoms: _541  and  _543
REMARK  233  A    between atoms: _543  and  _544
REMARK  234  A    between atoms: _543  and  _546
REMARK  235  A    between atoms: _549  and  _551
REMARK  236  A    between atoms: _551  and  _552
REMARK  237  A    between atoms: _551  and  _554
REMARK  238  A    between atoms: _554  and  _555
REMARK                            x       y       z     vdW  Elec       q    Type
REMARK                         _______ _______ _______ _____ _____    ______ ____
ROOT
ATOM      1  CB  HIS A   1      -2.790  33.804  21.775  0.00  0.00    +0.072 C 
ENDROOT
BRANCH   1   2
ATOM      2  CG  HIS A   1      -2.649  32.792  20.658  0.00  0.00    +0.082 A 
ATOM      3  CD2 HIS A   1      -3.041  31.554  20.562  0.00  0.00    +0.115 A 
ATOM      4  NE2 HIS A   1      -2.759  31.082  19.328  0.00  0.00    -0.221 NA
ATOM      5  CE1 HIS A   1      -2.195  32.040  18.645  0.00  0.00    +0.199 A 
ATOM      6  ND1 HIS A   1      -2.105  33.103  19.394  0.00  0.00    -0.227 NA
ENDBRANCH   1   2
BRANCH   1   7
ATOM      7  CA  HIS A   1      -4.269  33.943  22.120  0.00  0.00    +0.139 C 
BRANCH   7   8
ATOM      8  N   HIS A   1      -4.406  35.001  23.158  0.00  0.00    -0.239 NA
ATOM      9  H   HIS A   1      -3.623  35.266  23.789  0.00  0.00    +0.142 HD
ENDBRANCH   7   8
BRANCH   7  10
ATOM     10  C   HIS A   1      -4.966  32.667  22.611  0.00  0.00    +0.224 C 
ATOM     11  O   HIS A   1      -5.818  32.121  21.868  0.00  0.00    -0.287 OA
ENDBRANCH   7  10
ENDBRANCH   1   7
TORSDOF 4
REMARK  Name = ../refined-set-2016/1b38/1b38_pocket.pdb
REMARK  238 active torsions:
REMARK  status: ('A' for Active; 'I' for Inactive)
REMARK    1  A    between atoms: _1  and  _3
REMARK    2  A    between atoms: _3  and  _4
REMARK    3  A    between atoms: _3  and  _6
REMARK    4  A    between atoms: _6  and  _7
REMARK    5  A    between atoms: _7  and  _8
REMARK    6  A    between atoms: _8  and  _9
REMARK    7  A    between atoms: _9  and  _10
REMARK    8  A    between atoms: _14  and  _16
REMARK    9  A    between atoms: _16  and  _17
REMARK   10  A    between atoms: _16  and  _19
REMARK   11  A    between atoms: _19  and  _20
REMARK   12  A    between atoms: _23  and  _25
REMARK   13  A    between atoms: _25  and  _26
REMARK   14  A    between atoms: _28  and  _30
REMARK   15  A    between atoms: _30  and  _31
REMARK   16  A    between atoms: _30  and  _33
REMARK   17  A    between atoms: _33  and  _34
REMARK   18  A    between atoms: _34  and  _35
REMARK   19  A    between atoms: _38  and  _40
REMARK   20  A    between atoms: _40  and  _41
REMARK   21  A    between atoms: _43  and  _45
REMARK   22  A    between atoms: _45  and  _46
REMARK   23  A    between atoms: _45  and  _48
REMARK   24  A    between atoms: _48  and  _49
REMARK   25  A    between atoms: _52  and  _54
REMARK   26  A    between atoms: _54  and  _55
REMARK   27  A    between atoms: _54  and  _57
REMARK   28  A    between atoms: _57  and  _58
REMARK   29  A    between atoms: _63  and  _64
REMARK   30  A    between atoms: _66  and  _68
REMARK   31  A    between atoms: _68  and  _69
REMARK   32  A    between atoms: _71  and  _73
REMARK   33  A    between atoms: _73  and  _74
REMARK   34  A    between atoms: _73  and  _76
REMARK   35  A    between atoms: _79  and  _81
REMARK   36  A    between atoms: _81  and  _82
REMARK   37  A    between atoms: _81  and  _84
REMARK   38  A    between atoms: _87  and  _89
REMARK   39  A    between atoms: _89  and  _90
REMARK   40  A    between atoms: _89  and  _92
REMARK   41  A    between atoms: _92  and  _93
REMARK   42  A    between atoms: _98  and  _99
REMARK   43  A    between atoms: _101  and  _103
REMARK   44  A    between atoms: _103  and  _104
REMARK   45  A    between atoms: _103  and  _106
REMARK   46  A    between atoms: _106  and  _107
REMARK   47  A    between atoms: _107  and  _108
REMARK   48  A    between atoms: _108  and  _109
REMARK   49  A    between atoms: _109  and  _110
REMARK   50  A    between atoms: _114  and  _116
REMARK   51  A    between atoms: _116  and  _117
REMARK   52  A    between atoms: _120  and  _122
REMARK   53  A    between atoms: _122  and  _123
REMARK   54  A    between atoms: _122  and  _125
REMARK   55  A    between atoms: _128  and  _130
REMARK   56  A    between atoms: _130  and  _131
REMARK   57  A    between atoms: _134  and  _136
REMARK   58  A    between atoms: _136  and  _137
REMARK   59  A    between atoms: _136  and  _139
REMARK   60  A    between atoms: _139  and  _140
REMARK   61  A    between atoms: _143  and  _145
REMARK   62  A    between atoms: _145  and  _146
REMARK   63  A    between atoms: _145  and  _148
REMARK   64  A    between atoms: _148  and  _149
REMARK   65  A    between atoms: _149  and  _150
REMARK   66  A    between atoms: _150  and  _151
REMARK   67  A    between atoms: _151  and  _152
REMARK   68  A    between atoms: _156  and  _158
REMARK   69  A    between atoms: _158  and  _159
REMARK   70  A    between atoms: _158  and  _161
REMARK   71  A    between atoms: _161  and  _162
REMARK   72  A    between atoms: _162  and  _163
REMARK   73  A    between atoms: _163  and  _164
REMARK   74  A    between atoms: _164  and  _165
REMARK   75  A    between atoms: _169  and  _171
REMARK   76  A    between atoms: _171  and  _172
REMARK   77  A    between atoms: _171  and  _174
REMARK   78  A    between atoms: _174  and  _175
REMARK   79  A    between atoms: _178  and  _180
REMARK   80  A    between atoms: _180  and  _181
REMARK   81  A    between atoms: _180  and  _183
REMARK   82  A    between atoms: _186  and  _188
REMARK   83  A    between atoms: _188  and  _189
REMARK   84  A    between atoms: _188  and  _191
REMARK   85  A    between atoms: _191  and  _192
REMARK   86  A    between atoms: _192  and  _193
REMARK   87  A    between atoms: _193  and  _194
REMARK   88  A    between atoms: _194  and  _195
REMARK   89  A    between atoms: _199  and  _201
REMARK   90  A    between atoms: _201  and  _202
REMARK   91  A    between atoms: _201  and  _204
REMARK   92  A    between atoms: _204  and  _205
REMARK   93  A    between atoms: _208  and  _210
REMARK   94  A    between atoms: _210  and  _211
REMARK   95  A    between atoms: _210  and  _213
REMARK   96  A    between atoms: _213  and  _214
REMARK   97  A    between atoms: _217  and  _219
REMARK   98  A    between atoms: _219  and  _220
REMARK   99  A    between atoms: _219  and  _222
REMARK  100  A    between atoms: _225  and  _227
REMARK  101  A    between atoms: _227  and  _228
REMARK  102  A    between atoms: _227  and  _230
REMARK  103  A    between atoms: _230  and  _231
REMARK  104  A    between atoms: _237  and  _239
REMARK  105  A    between atoms: _239  and  _240
REMARK  106  A    between atoms: _239  and  _242
REMARK  107  A    between atoms: _242  and  _243
REMARK  108  A    between atoms: _243  and  _244
REMARK  109  A    between atoms: _247  and  _249
REMARK  110  A    between atoms: _249  and  _250
REMARK  111  A    between atoms: _249  and  _252
REMARK  112  A    between atoms: _252  and  _253
REMARK  113  A    between atoms: _259  and  _261
REMARK  114  A    between atoms: _261  and  _262
REMARK  115  A    between atoms: _261  and  _264
REMARK  116  A    between atoms: _264  and  _265
REMARK  117  A    between atoms: _268  and  _270
REMARK  118  A    between atoms: _270  and  _271
REMARK  119  A    between atoms: _270  and  _273
REMARK  120  A    between atoms: _273  and  _274
REMARK  121  A    between atoms: _279  and  _281
REMARK  122  A    between atoms: _281  and  _282
REMARK  123  A    between atoms: _281  and  _284
REMARK  124  A    between atoms: _284  and  _285
REMARK  125  A    between atoms: _285  and  _286
REMARK  126  A    between atoms: _291  and  _293
REMARK  127  A    between atoms: _293  and  _294
REMARK  128  A    between atoms: _293  and  _296
REMARK  129  A    between atoms: _296  and  _297
REMARK  130  A    between atoms: _300  and  _302
REMARK  131  A    between atoms: _302  and  _303
REMARK  132  A    between atoms: _302  and  _305
REMARK  133  A    between atoms: _305  and  _306
REMARK  134  A    between atoms: _309  and  _311
REMARK  135  A    between atoms: _311  and  _312
REMARK  136  A    between atoms: _311  and  _314
REMARK  137  A    between atoms: _314  and  _315
REMARK  138  A    between atoms: _315  and  _316
REMARK  139  A    between atoms: _316  and  _317
REMARK  140  A    between atoms: _317  and  _318
REMARK  141  A    between atoms: _322  and  _324
REMARK  142  A    between atoms: _324  and  _325
REMARK  143  A    between atoms: _324  and  _327
REMARK  144  A    between atoms: _327  and  _328
REMARK  145  A    between atoms: _328  and  _329
REMARK  146  A    between atoms: _329  and  _330
REMARK  147  A    between atoms: _330  and  _331
REMARK  148  A    between atoms: _335  and  _337
REMARK  149  A    between atoms: _337  and  _338
REMARK  150  A    between atoms: _337  and  _340
REMARK  151  A    between atoms: _340  and  _341
REMARK  152  A    between atoms: _346  and  _348
REMARK  153  A    between atoms: _348  and  _349
REMARK  154  A    between atoms: _348  and  _351
REMARK  155  A    between atoms: _351  and  _352
REMARK  156  A    between atoms: _355  and  _357
REMARK  157  A    between atoms: _357  and  _358
REMARK  158  A    between atoms: _357  and  _360
REMARK  159  A    between atoms: _360  and  _361
REMARK  160  A    between atoms: _364  and  _366
REMARK  161  A    between atoms: _366  and  _367
REMARK  162  A    between atoms: _366  and  _369
REMARK  163  A    between atoms: _369  and  _370
REMARK  164  A    between atoms: _370  and  _371
REMARK  165  A    between atoms: _371  and  _372
REMARK  166  A    between atoms: _372  and  _373
REMARK  167  A    between atoms: _378  and  _379
REMARK  168  A    between atoms: _384  and  _386
REMARK  169  A    between atoms: _386  and  _387
REMARK  170  A    between atoms: _386  and  _389
REMARK  171  A    between atoms: _389  and  _390
REMARK  172  A    between atoms: _390  and  _391
REMARK  173  A    between atoms: _396  and  _398
REMARK  174  A    between atoms: _398  and  _399
REMARK  175  A    between atoms: _398  and  _401
REMARK  176  A    between atoms: _401  and  _402
REMARK  177  A    between atoms: _407  and  _409
REMARK  178  A    between atoms: _409  and  _410
REMARK  179  A    between atoms: _409  and  _412
REMARK  180  A    between atoms: _412  and  _413
REMARK  181  A    between atoms: _416  and  _418
REMARK  182  A    between atoms: _418  and  _419
REMARK  183  A    between atoms: _418  and  _421
REMARK  184  A    between atoms: _421  and  _422
REMARK  185  A    between atoms: _425  and  _427
REMARK  186  A    between atoms: _427  and  _428
REMARK  187  A    between atoms: _427  and  _430
REMARK  188  A    between atoms: _430  and  _431
REMARK  189  A    between atoms: _434  and  _436
REMARK  190  A    between atoms: _436  and  _437
REMARK  191  A    between atoms: _436  and  _439
REMARK  192  A    between atoms: _439  and  _440
REMARK  193  A    between atoms: _443  and  _445
REMARK  194  A    between atoms: _445  and  _446
REMARK  195  A    between atoms: _449  and  _451
REMARK  196  A    between atoms: _451  and  _452
REMARK  197  A    between atoms: _451  and  _454
REMARK  198  A    between atoms: _454  and  _455
REMARK  199  A    between atoms: _455  and  _457
REMARK  200  A    between atoms: _457  and  MG_558
REMARK  201  A    between atoms: _458  and  _460
REMARK  202  A    between atoms: _460  and  _461
REMARK  203  A    between atoms: _460  and  _463
REMARK  204  A    between atoms: _463  and  _464
REMARK  205  A    between atoms: _470  and  _472
REMARK  206  A    between atoms: _472  and  _473
REMARK  207  A    between atoms: _472  and  _475
REMARK  208  A    between atoms: _475  and  _476
REMARK  209  A    between atoms: _479  and  _481
REMARK  210  A    between atoms: _481  and  _482
REMARK  211  A    between atoms: _485  and  _487
REMARK  212  A    between atoms: _487  and  _488
REMARK  213  A    between atoms: _487  and  _490
REMARK  214  A    between atoms: _494  and  _495
REMARK  215  A    between atoms: _500  and  _502
REMARK  216  A    between atoms: _502  and  _503
REMARK  217  A    between atoms: _502  and  _505
REMARK  218  A    between atoms: _505  and  _506
REMARK  219  A    between atoms: _509  and  _511
REMARK  220  A    between atoms: _511  and  _512
REMARK  221  A    between atoms: _511  and  _514
REMARK  222  A    between atoms: _514  and  _515
REMARK  223  A    between atoms: _520  and  _521
REMARK  224  A    between atoms: _523  and  _525
REMARK  225  A    between atoms: _525  and  _526
REMARK  226  A    between atoms: _525  and  _528
REMARK  227  A    between atoms: _528  and  _529
REMARK  228  A    between atoms: _529  and  _530
REMARK  229  A    between atoms: _533  and  _535
REMARK  230  A    between atoms: _535  and  _536
REMARK  231  A    between atoms: _535  and  _538
REMARK  232  A    between atoms: _541  and  _543
REMARK  233  A    between atoms: _543  and  _544
REMARK  234  A    between atoms: _543  and  _546
REMARK  235  A    between atoms: _549  and  _551
REMARK  236  A    between atoms: _551  and  _552
REMARK  237  A    between atoms: _551  and  _554
REMARK  238  A    between atoms: _554  and  _555
REMARK                            x       y       z     vdW  Elec       q    Type
REMARK                         _______ _______ _______ _____ _____    ______ ____
ROOT
ATOM      1  CA  GLN A   5       3.300  25.693  15.002  0.00  0.00    +0.149 C 
ENDROOT
BRANCH   1   2
ATOM      2  C   GLN A   5       2.585  27.025  14.735  0.00  0.00    +0.241 C 
ATOM      3  N   ASN A   6       2.274  27.792  15.758  0.00  0.00    -0.297 N 
ATOM      4  H   ASN A   6       2.570  27.459  16.698  0.00  0.00    +0.150 HD
ATOM      5  O   GLN A   5       2.217  27.301  13.618  0.00  0.00    -0.273 OA
BRANCH   3   6
ATOM      6  CA  ASN A   6       1.568  29.042  15.710  0.00  0.00    +0.158 C 
BRANCH   6   7
ATOM      7  C   ASN A   6       2.553  30.218  15.752  0.00  0.00    +0.241 C 
ATOM      8  O   ASN A   6       2.163  31.289  16.122  0.00  0.00    -0.273 OA
ATOM      9  N   LEU A   7       3.815  29.967  15.557  0.00  0.00    -0.297 N 
ATOM     10  H   LEU A   7       4.110  28.991  15.354  0.00  0.00    +0.150 HD
BRANCH   9  11
ATOM     11  CA  LEU A   7       4.842  31.028  15.616  0.00  0.00    +0.149 C 
BRANCH  11  12
ATOM     12  C   LEU A   7       5.535  30.966  14.234  0.00  0.00    +0.241 C 
ATOM     13  O   LEU A   7       6.007  29.876  13.927  0.00  0.00    -0.273 OA
ATOM     14  N   LEU A   8       5.294  31.948  13.387  0.00  0.00    -0.297 N 
ATOM     15  H   LEU A   8       4.765  32.793  13.681  0.00  0.00    +0.150 HD
BRANCH  14  16
ATOM     16  CA  LEU A   8       5.798  31.808  12.014  0.00  0.00    +0.149 C 
BRANCH  16  17
ATOM     17  C   LEU A   8       6.972  32.744  11.776  0.00  0.00    +0.241 C 
ATOM     18  O   LEU A   8       6.935  33.813  12.387  0.00  0.00    -0.273 OA
ATOM     19  N   ILE A   9       7.955  32.344  10.961  0.00  0.00    -0.298 N 
ATOM     20  H   ILE A   9       7.864  31.466  10.410  0.00  0.00    +0.150 HD
BRANCH  19  21
ATOM     21  CA  ILE A   9       9.167  33.171  10.860  0.00  0.00    +0.137 C 
BRANCH  21  22
ATOM     22  C   ILE A   9       9.400  33.470   9.354  0.00  0.00    +0.227 C 
ATOM     23  O   ILE A   9       8.891  32.730   8.551  0.00  0.00    -0.286 OA
ENDBRANCH  21  22
BRANCH  21  24
ATOM     24  CB  ILE A   9      10.420  32.428  11.372  0.00  0.00    +0.026 C 
ATOM     25  CG2 ILE A   9      10.289  32.078  12.871  0.00  0.00    +0.002 C 
BRANCH  24  26
ATOM     26  CG1 ILE A   9      10.650  31.083  10.654  0.00  0.00    +0.002 C 
ATOM     27  CD1 ILE A   9      12.033  30.451  10.977  0.00  0.00    +0.000 C 
ENDBRANCH  24  26
ENDBRANCH  21  24
ENDBRANCH  19  21
ENDBRANCH  16  17
BRANCH  16  28
ATOM     28  CB  LEU A   8       4.641  32.096  11.023  0.00  0.00    +0.029 C 
BRANCH  28  29
ATOM     29  CG  LEU A   8       3.376  31.191  11.216  0.00  0.00    +0.002 C 
ATOM     30  CD2 LEU A   8       3.737  29.728  11.076  0.00  0.00    +0.000 C 
ATOM     31  CD1 LEU A   8       2.374  31.548  10.158  0.00  0.00    +0.000 C 
ENDBRANCH  28  29
ENDBRANCH  16  28
ENDBRANCH  14  16
ENDBRANCH  11  12
BRANCH  11  32
ATOM     32  CB  LEU A   7       5.731  30.830  16.807  0.00  0.00    +0.029 C 
BRANCH  32  33
ATOM     33  CG  LEU A   7       5.133  30.939  18.212  0.00  0.00    +0.002 C 
ATOM     34  CD2 LEU A   7       6.222  30.710  19.246  0.00  0.00    +0.000 C 
ATOM     35  CD1 LEU A   7       4.515  32.360  18.242  0.00  0.00    +0.000 C 
ENDBRANCH  32  33
ENDBRANCH  11  32
ENDBRANCH   9  11
ENDBRANCH   6   7
BRANCH   6  36
ATOM     36  CB  ASN A   6       0.588  29.089  16.887  0.00  0.00    +0.114 C 
BRANCH  36  37
ATOM     37  CG  ASN A   6      -0.736  28.425  16.520  0.00  0.00    +0.222 C 
ATOM     38  ND2 ASN A   6      -1.657  28.185  17.443  0.00  0.00    -0.329 N 
ATOM     39 HD21 ASN A   6      -1.465  28.410  18.440  0.00  0.00    +0.145 HD
ATOM     40 HD22 ASN A   6      -2.571  27.772  17.170  0.00  0.00    +0.145 HD
ATOM     41  OD1 ASN A   6      -0.902  28.182  15.329  0.00  0.00    -0.275 OA
ENDBRANCH  36  37
ENDBRANCH   6  36
ENDBRANCH   3   6
ENDBRANCH   1   2
BRANCH   1  43
ATOM     42  C   PRO A   4       4.938  26.513  16.642  0.00  0.00    +0.241 C 
ATOM     43  N   GLN A   5       3.932  25.726  16.289  0.00  0.00    -0.297 N 
ATOM     44  H   GLN A   5       3.567  25.073  17.011  0.00  0.00    +0.150 HD
ATOM     45  O   PRO A   4       5.381  27.308  15.806  0.00  0.00    -0.273 OA
BRANCH  42  51
ATOM     46  C   LYS A   3       3.533  26.911  19.286  0.00  0.00    +0.244 C 
ATOM     47  N   PRO A   4       4.598  26.157  19.105  0.00  0.00    -0.272 N 
ATOM     48  CD  PRO A   4       5.067  25.057  19.994  0.00  0.00    +0.094 C 
ATOM     49  CG  PRO A   4       6.564  24.986  19.690  0.00  0.00    +0.024 C 
ATOM     50  CB  PRO A   4       6.573  25.275  18.165  0.00  0.00    +0.031 C 
ATOM     51  CA  PRO A   4       5.554  26.422  18.019  0.00  0.00    +0.152 C 
ATOM     52  O   LYS A   3       3.291  27.854  18.522  0.00  0.00    -0.273 OA
BRANCH  46  53
ATOM     53  CA  LYS A   3       2.612  26.683  20.496  0.00  0.00    +0.149 C 
BRANCH  53  56
ATOM     54  C   LEU A   2       1.081  28.137  21.749  0.00  0.00    +0.241 C 
ATOM     55  O   LEU A   2       1.013  27.465  22.783  0.00  0.00    -0.273 OA
ATOM     56  N   LYS A   3       1.800  27.855  20.694  0.00  0.00    -0.297 N 
ATOM     57  H   LYS A   3       1.784  28.548  19.919  0.00  0.00    +0.150 HD
BRANCH  54  58
ATOM     58  CA  LEU A   2       0.333  29.489  21.757  0.00  0.00    +0.149 C 
BRANCH  58  60
ATOM     59  C   ASP A   1      -1.881  28.598  21.635  0.00  0.00    +0.239 C 
ATOM     60  N   LEU A   2      -0.992  29.335  22.344  0.00  0.00    -0.297 N 
ATOM     61  H   LEU A   2      -1.241  29.767  23.257  0.00  0.00    +0.150 HD
ATOM     62  O   ASP A   1      -1.650  28.223  20.484  0.00  0.00    -0.274 OA
BRANCH  59  63
ATOM     63  CA  ASP A   1      -3.242  28.406  22.273  0.00  0.00    +0.156 C 
BRANCH  63  64
ATOM     64  N   ASP A   1      -3.827  29.649  22.771  0.00  0.00    -0.238 NA
ATOM     65  H   ASP A   1      -3.748  30.524  22.215  0.00  0.00    +0.142 HD
ENDBRANCH  63  64
BRANCH  63  66
ATOM     66  CB  ASP A   1      -4.201  27.733  21.245  0.00  0.00    +0.140 C 
BRANCH  66  67
ATOM     67  CG  ASP A   1      -3.803  26.254  21.258  0.00  0.00    +0.367 C 
ATOM     68  OD2 ASP A   1      -3.033  25.843  22.187  0.00  0.00    -0.246 OA
ATOM     69  OD1 ASP A   1      -4.220  25.603  20.273  0.00  0.00    -0.246 OA
ENDBRANCH  66  67
ENDBRANCH  63  66
ENDBRANCH  59  63
ENDBRANCH  58  60
BRANCH  58  70
ATOM     70  CB  LEU A   2       1.232  30.438  22.506  0.00  0.00    +0.029 C 
BRANCH  70  71
ATOM     71  CG  LEU A   2       0.960  31.916  22.558  0.00  0.00    +0.002 C 
ATOM     72  CD2 LEU A   2       2.231  32.619  23.043  0.00  0.00    +0.000 C 
ATOM     73  CD1 LEU A   2       0.632  32.423  21.147  0.00  0.00    +0.000 C 
ENDBRANCH  70  71
ENDBRANCH  58  70
ENDBRANCH  54  58
ENDBRANCH  53  56
BRANCH  53  74
ATOM     74  CB  LYS A   3       1.788  25.438  20.231  0.00  0.00    +0.029 C 
BRANCH  74  75
ATOM     75  CG  LYS A   3       0.873  25.534  18.994  0.00  0.00    +0.000 C 
BRANCH  75  76
ATOM     76  CD  LYS A   3      -0.429  24.832  19.343  0.00  0.00    -0.024 C 
BRANCH  76  77
ATOM     77  CE  LYS A   3      -1.252  24.347  18.197  0.00  0.00    -0.086 C 
BRANCH  77  78
ATOM     78  NZ  LYS A   3      -2.582  23.847  18.682  0.00  0.00    +0.380 N 
ATOM     79  HZ1 LYS A   3      -2.434  23.063  19.349  0.00  0.00    -0.089 HD
ATOM     80  HZ2 LYS A   3      -3.088  24.620  19.160  0.00  0.00    -0.089 HD
ATOM     81  HZ3 LYS A   3      -3.142  23.513  17.872  0.00  0.00    -0.089 HD
ENDBRANCH  77  78
ENDBRANCH  76  77
ENDBRANCH  75  76
ENDBRANCH  74  75
ENDBRANCH  53  74
ENDBRANCH  46  53
ENDBRANCH  42  51
ENDBRANCH   1  43
BRANCH   1  82
ATOM     82  CB  GLN A   5       2.304  24.534  14.802  0.00  0.00    +0.039 C 
BRANCH  82  83
ATOM     83  CG  GLN A   5       2.814  23.179  15.294  0.00  0.00    +0.087 C 
BRANCH  83  84
ATOM     84  CD  GLN A   5       2.688  22.968  16.815  0.00  0.00    +0.219 C 
ATOM     85  OE1 GLN A   5       3.391  23.438  17.704  0.00  0.00    -0.275 OA
ATOM     86  NE2 GLN A   5       1.666  22.175  17.221  0.00  0.00    -0.329 N 
ATOM     87 HE21 GLN A   5       1.517  21.997  18.235  0.00  0.00    +0.145 HD
ATOM     88 HE22 GLN A   5       1.031  21.744  16.519  0.00  0.00    +0.145 HD
ENDBRANCH  83  84
ENDBRANCH  82  83
ENDBRANCH   1  82
TORSDOF 37
REMARK  Name = ../refined-set-2016/1b38/1b38_pocket.pdb
REMARK  238 active torsions:
REMARK  status: ('A' for Active; 'I' for Inactive)
REMARK    1  A    between atoms: _1  and  _3
REMARK    2  A    between atoms: _3  and  _4
REMARK    3  A    between atoms: _3  and  _6
REMARK    4  A    between atoms: _6  and  _7
REMARK    5  A    between atoms: _7  and  _8
REMARK    6  A    between atoms: _8  and  _9
REMARK    7  A    between atoms: _9  and  _10
REMARK    8  A    between atoms: _14  and  _16
REMARK    9  A    between atoms: _16  and  _17
REMARK   10  A    between atoms: _16  and  _19
REMARK   11  A    between atoms: _19  and  _20
REMARK   12  A    between atoms: _23  and  _25
REMARK   13  A    between atoms: _25  and  _26
REMARK   14  A    between atoms: _28  and  _30
REMARK   15  A    between atoms: _30  and  _31
REMARK   16  A    between atoms: _30  and  _33
REMARK   17  A    between atoms: _33  and  _34
REMARK   18  A    between atoms: _34  and  _35
REMARK   19  A    between atoms: _38  and  _40
REMARK   20  A    between atoms: _40  and  _41
REMARK   21  A    between atoms: _43  and  _45
REMARK   22  A    between atoms: _45  and  _46
REMARK   23  A    between atoms: _45  and  _48
REMARK   24  A    between atoms: _48  and  _49
REMARK   25  A    between atoms: _52  and  _54
REMARK   26  A    between atoms: _54  and  _55
REMARK   27  A    between atoms: _54  and  _57
REMARK   28  A    between atoms: _57  and  _58
REMARK   29  A    between atoms: _63  and  _64
REMARK   30  A    between atoms: _66  and  _68
REMARK   31  A    between atoms: _68  and  _69
REMARK   32  A    between atoms: _71  and  _73
REMARK   33  A    between atoms: _73  and  _74
REMARK   34  A    between atoms: _73  and  _76
REMARK   35  A    between atoms: _79  and  _81
REMARK   36  A    between atoms: _81  and  _82
REMARK   37  A    between atoms: _81  and  _84
REMARK   38  A    between atoms: _87  and  _89
REMARK   39  A    between atoms: _89  and  _90
REMARK   40  A    between atoms: _89  and  _92
REMARK   41  A    between atoms: _92  and  _93
REMARK   42  A    between atoms: _98  and  _99
REMARK   43  A    between atoms: _101  and  _103
REMARK   44  A    between atoms: _103  and  _104
REMARK   45  A    between atoms: _103  and  _106
REMARK   46  A    between atoms: _106  and  _107
REMARK   47  A    between atoms: _107  and  _108
REMARK   48  A    between atoms: _108  and  _109
REMARK   49  A    between atoms: _109  and  _110
REMARK   50  A    between atoms: _114  and  _116
REMARK   51  A    between atoms: _116  and  _117
REMARK   52  A    between atoms: _120  and  _122
REMARK   53  A    between atoms: _122  and  _123
REMARK   54  A    between atoms: _122  and  _125
REMARK   55  A    between atoms: _128  and  _130
REMARK   56  A    between atoms: _130  and  _131
REMARK   57  A    between atoms: _134  and  _136
REMARK   58  A    between atoms: _136  and  _137
REMARK   59  A    between atoms: _136  and  _139
REMARK   60  A    between atoms: _139  and  _140
REMARK   61  A    between atoms: _143  and  _145
REMARK   62  A    between atoms: _145  and  _146
REMARK   63  A    between atoms: _145  and  _148
REMARK   64  A    between atoms: _148  and  _149
REMARK   65  A    between atoms: _149  and  _150
REMARK   66  A    between atoms: _150  and  _151
REMARK   67  A    between atoms: _151  and  _152
REMARK   68  A    between atoms: _156  and  _158
REMARK   69  A    between atoms: _158  and  _159
REMARK   70  A    between atoms: _158  and  _161
REMARK   71  A    between atoms: _161  and  _162
REMARK   72  A    between atoms: _162  and  _163
REMARK   73  A    between atoms: _163  and  _164
REMARK   74  A    between atoms: _164  and  _165
REMARK   75  A    between atoms: _169  and  _171
REMARK   76  A    between atoms: _171  and  _172
REMARK   77  A    between atoms: _171  and  _174
REMARK   78  A    between atoms: _174  and  _175
REMARK   79  A    between atoms: _178  and  _180
REMARK   80  A    between atoms: _180  and  _181
REMARK   81  A    between atoms: _180  and  _183
REMARK   82  A    between atoms: _186  and  _188
REMARK   83  A    between atoms: _188  and  _189
REMARK   84  A    between atoms: _188  and  _191
REMARK   85  A    between atoms: _191  and  _192
REMARK   86  A    between atoms: _192  and  _193
REMARK   87  A    between atoms: _193  and  _194
REMARK   88  A    between atoms: _194  and  _195
REMARK   89  A    between atoms: _199  and  _201
REMARK   90  A    between atoms: _201  and  _202
REMARK   91  A    between atoms: _201  and  _204
REMARK   92  A    between atoms: _204  and  _205
REMARK   93  A    between atoms: _208  and  _210
REMARK   94  A    between atoms: _210  and  _211
REMARK   95  A    between atoms: _210  and  _213
REMARK   96  A    between atoms: _213  and  _214
REMARK   97  A    between atoms: _217  and  _219
REMARK   98  A    between atoms: _219  and  _220
REMARK   99  A    between atoms: _219  and  _222
REMARK  100  A    between atoms: _225  and  _227
REMARK  101  A    between atoms: _227  and  _228
REMARK  102  A    between atoms: _227  and  _230
REMARK  103  A    between atoms: _230  and  _231
REMARK  104  A    between atoms: _237  and  _239
REMARK  105  A    between atoms: _239  and  _240
REMARK  106  A    between atoms: _239  and  _242
REMARK  107  A    between atoms: _242  and  _243
REMARK  108  A    between atoms: _243  and  _244
REMARK  109  A    between atoms: _247  and  _249
REMARK  110  A    between atoms: _249  and  _250
REMARK  111  A    between atoms: _249  and  _252
REMARK  112  A    between atoms: _252  and  _253
REMARK  113  A    between atoms: _259  and  _261
REMARK  114  A    between atoms: _261  and  _262
REMARK  115  A    between atoms: _261  and  _264
REMARK  116  A    between atoms: _264  and  _265
REMARK  117  A    between atoms: _268  and  _270
REMARK  118  A    between atoms: _270  and  _271
REMARK  119  A    between atoms: _270  and  _273
REMARK  120  A    between atoms: _273  and  _274
REMARK  121  A    between atoms: _279  and  _281
REMARK  122  A    between atoms: _281  and  _282
REMARK  123  A    between atoms: _281  and  _284
REMARK  124  A    between atoms: _284  and  _285
REMARK  125  A    between atoms: _285  and  _286
REMARK  126  A    between atoms: _291  and  _293
REMARK  127  A    between atoms: _293  and  _294
REMARK  128  A    between atoms: _293  and  _296
REMARK  129  A    between atoms: _296  and  _297
REMARK  130  A    between atoms: _300  and  _302
REMARK  131  A    between atoms: _302  and  _303
REMARK  132  A    between atoms: _302  and  _305
REMARK  133  A    between atoms: _305  and  _306
REMARK  134  A    between atoms: _309  and  _311
REMARK  135  A    between atoms: _311  and  _312
REMARK  136  A    between atoms: _311  and  _314
REMARK  137  A    between atoms: _314  and  _315
REMARK  138  A    between atoms: _315  and  _316
REMARK  139  A    between atoms: _316  and  _317
REMARK  140  A    between atoms: _317  and  _318
REMARK  141  A    between atoms: _322  and  _324
REMARK  142  A    between atoms: _324  and  _325
REMARK  143  A    between atoms: _324  and  _327
REMARK  144  A    between atoms: _327  and  _328
REMARK  145  A    between atoms: _328  and  _329
REMARK  146  A    between atoms: _329  and  _330
REMARK  147  A    between atoms: _330  and  _331
REMARK  148  A    between atoms: _335  and  _337
REMARK  149  A    between atoms: _337  and  _338
REMARK  150  A    between atoms: _337  and  _340
REMARK  151  A    between atoms: _340  and  _341
REMARK  152  A    between atoms: _346  and  _348
REMARK  153  A    between atoms: _348  and  _349
REMARK  154  A    between atoms: _348  and  _351
REMARK  155  A    between atoms: _351  and  _352
REMARK  156  A    between atoms: _355  and  _357
REMARK  157  A    between atoms: _357  and  _358
REMARK  158  A    between atoms: _357  and  _360
REMARK  159  A    between atoms: _360  and  _361
REMARK  160  A    between atoms: _364  and  _366
REMARK  161  A    between atoms: _366  and  _367
REMARK  162  A    between atoms: _366  and  _369
REMARK  163  A    between atoms: _369  and  _370
REMARK  164  A    between atoms: _370  and  _371
REMARK  165  A    between atoms: _371  and  _372
REMARK  166  A    between atoms: _372  and  _373
REMARK  167  A    between atoms: _378  and  _379
REMARK  168  A    between atoms: _384  and  _386
REMARK  169  A    between atoms: _386  and  _387
REMARK  170  A    between atoms: _386  and  _389
REMARK  171  A    between atoms: _389  and  _390
REMARK  172  A    between atoms: _390  and  _391
REMARK  173  A    between atoms: _396  and  _398
REMARK  174  A    between atoms: _398  and  _399
REMARK  175  A    between atoms: _398  and  _401
REMARK  176  A    between atoms: _401  and  _402
REMARK  177  A    between atoms: _407  and  _409
REMARK  178  A    between atoms: _409  and  _410
REMARK  179  A    between atoms: _409  and  _412
REMARK  180  A    between atoms: _412  and  _413
REMARK  181  A    between atoms: _416  and  _418
REMARK  182  A    between atoms: _418  and  _419
REMARK  183  A    between atoms: _418  and  _421
REMARK  184  A    between atoms: _421  and  _422
REMARK  185  A    between atoms: _425  and  _427
REMARK  186  A    between atoms: _427  and  _428
REMARK  187  A    between atoms: _427  and  _430
REMARK  188  A    between atoms: _430  and  _431
REMARK  189  A    between atoms: _434  and  _436
REMARK  190  A    between atoms: _436  and  _437
REMARK  191  A    between atoms: _436  and  _439
REMARK  192  A    between atoms: _439  and  _440
REMARK  193  A    between atoms: _443  and  _445
REMARK  194  A    between atoms: _445  and  _446
REMARK  195  A    between atoms: _449  and  _451
REMARK  196  A    between atoms: _451  and  _452
REMARK  197  A    between atoms: _451  and  _454
REMARK  198  A    between atoms: _454  and  _455
REMARK  199  A    between atoms: _455  and  _457
REMARK  200  A    between atoms: _457  and  MG_558
REMARK  201  A    between atoms: _458  and  _460
REMARK  202  A    between atoms: _460  and  _461
REMARK  203  A    between atoms: _460  and  _463
REMARK  204  A    between atoms: _463  and  _464
REMARK  205  A    between atoms: _470  and  _472
REMARK  206  A    between atoms: _472  and  _473
REMARK  207  A    between atoms: _472  and  _475
REMARK  208  A    between atoms: _475  and  _476
REMARK  209  A    between atoms: _479  and  _481
REMARK  210  A    between atoms: _481  and  _482
REMARK  211  A    between atoms: _485  and  _487
REMARK  212  A    between atoms: _487  and  _488
REMARK  213  A    between atoms: _487  and  _490
REMARK  214  A    between atoms: _494  and  _495
REMARK  215  A    between atoms: _500  and  _502
REMARK  216  A    between atoms: _502  and  _503
REMARK  217  A    between atoms: _502  and  _505
REMARK  218  A    between atoms: _505  and  _506
REMARK  219  A    between atoms: _509  and  _511
REMARK  220  A    between atoms: _511  and  _512
REMARK  221  A    between atoms: _511  and  _514
REMARK  222  A    between atoms: _514  and  _515
REMARK  223  A    between atoms: _520  and  _521
REMARK  224  A    between atoms: _523  and  _525
REMARK  225  A    between atoms: _525  and  _526
REMARK  226  A    between atoms: _525  and  _528
REMARK  227  A    between atoms: _528  and  _529
REMARK  228  A    between atoms: _529  and  _530
REMARK  229  A    between atoms: _533  and  _535
REMARK  230  A    between atoms: _535  and  _536
REMARK  231  A    between atoms: _535  and  _538
REMARK  232  A    between atoms: _541  and  _543
REMARK  233  A    between atoms: _543  and  _544
REMARK  234  A    between atoms: _543  and  _546
REMARK  235  A    between atoms: _549  and  _551
REMARK  236  A    between atoms: _551  and  _552
REMARK  237  A    between atoms: _551  and  _554
REMARK  238  A    between atoms: _554  and  _555
REMARK                            x       y       z     vdW  Elec       q    Type
REMARK                         _______ _______ _______ _____ _____    ______ ____
ROOT
ATOM      1  C   UNK A   3      -4.177  32.109  14.785  0.00  0.00    +0.000 C 
ENDROOT
BRANCH   1   4
ATOM      2  C   ALA A   2      -1.746  32.515  14.725  0.00  0.00    +0.000 C 
ATOM      3  O   ALA A   2      -1.657  32.010  15.873  0.00  0.00    +0.000 OA
ATOM      4  N   UNK A   3      -2.912  32.585  14.117  0.00  0.00    +0.000 N 
ATOM      5  H   UNK A   3      -2.961  32.977  13.155  0.00  0.00    +0.000 HD
BRANCH   2   6
ATOM      6  CA  ALA A   2      -0.466  32.924  14.014  0.00  0.00    +0.000 C 
ATOM      7  CB  ALA A   2       0.033  31.691  13.223  0.00  0.00    +0.000 C 
BRANCH   6   9
ATOM      8  C   LEU A   1       0.836  34.528  15.335  0.00  0.00    +0.000 C 
ATOM      9  N   ALA A   2       0.579  33.298  14.961  0.00  0.00    +0.000 N 
ATOM     10  H   ALA A   2       1.160  32.537  15.367  0.00  0.00    +0.000 HD
ATOM     11  O   LEU A   1       0.260  35.525  14.813  0.00  0.00    +0.000 OA
BRANCH   8  12
ATOM     12  CA  LEU A   1       1.957  34.864  16.308  0.00  0.00    +0.000 C 
BRANCH  12  13
ATOM     13  N   LEU A   1       2.915  35.815  15.730  0.00  0.00    +0.000 NA
ATOM     14  H   LEU A   1       2.786  36.835  15.885  0.00  0.00    +0.000 HD
ENDBRANCH  12  13
BRANCH  12  15
ATOM     15  CB  LEU A   1       1.306  35.639  17.466  0.00  0.00    +0.000 C 
BRANCH  15  16
ATOM     16  CG  LEU A   1       2.324  35.986  18.557  0.00  0.00    +0.000 C 
ATOM     17  CD2 LEU A   1       2.315  34.803  19.518  0.00  0.00    +0.000 C 
ATOM     18  CD1 LEU A   1       1.849  37.298  19.215  0.00  0.00    +0.000 C 
ENDBRANCH  15  16
ENDBRANCH  12  15
ENDBRANCH   8  12
ENDBRANCH   6   9
ENDBRANCH   2   6
ENDBRANCH   1   4
BRANCH   1  19
ATOM     19  C   UNK A   3      -4.522  32.821  16.048  0.00  0.00    +0.000 C 
ATOM     20  O   UNK A   3      -5.251  32.276  16.887  0.00  0.00    +0.000 OA
ATOM     21  N   PHE A   4      -4.084  34.082  16.242  0.00  0.00    +0.000 N 
ATOM     22  H   PHE A   4      -3.475  34.529  15.527  0.00  0.00    +0.000 HD
BRANCH  21  23
ATOM     23  CA  PHE A   4      -4.440  34.802  17.401  0.00  0.00    +0.000 C 
BRANCH  23  24
ATOM     24  C   PHE A   4      -5.969  34.873  17.457  0.00  0.00    +0.000 C 
ATOM     25  O   PHE A   4      -6.554  35.362  16.508  0.00  0.00    +0.000 OA
ENDBRANCH  23  24
BRANCH  23  26
ATOM     26  CB  PHE A   4      -3.995  36.301  17.365  0.00  0.00    +0.000 C 
BRANCH  26  27
ATOM     27  CG  PHE A   4      -3.467  36.678  18.720  0.00  0.00    +0.000 A 
ATOM     28  CD2 PHE A   4      -4.253  37.083  19.755  0.00  0.00    +0.000 A 
ATOM     29  CE2 PHE A   4      -3.682  37.398  20.964  0.00  0.00    +0.000 A 
ATOM     30  CZ  PHE A   4      -2.339  37.280  21.180  0.00  0.00    +0.000 A 
ATOM     31  CE1 PHE A   4      -1.508  36.890  20.136  0.00  0.00    +0.000 A 
ATOM     32  CD1 PHE A   4      -2.085  36.584  18.928  0.00  0.00    +0.000 A 
ENDBRANCH  26  27
ENDBRANCH  23  26
ENDBRANCH  21  23
ENDBRANCH   1  19
BRANCH   1  33
ATOM     33  C   UNK A   3      -4.182  30.570  15.027  0.00  0.00    +0.000 C 
BRANCH  33  34
ATOM     34  C   UNK A   3      -4.012  29.921  13.636  0.00  0.00    +0.000 C 
ATOM     35  O   UNK A   3      -4.491  30.493  12.630  0.00  0.00    +0.000 OA
BRANCH  34  36
ATOM     36  O   UNK A   3      -3.386  28.856  13.448  0.00  0.00    +0.000 OA
BRANCH  36  37
ATOM     37 MG   UNK A   3      -2.100  27.334  13.797  0.00  0.00    +0.000 Mg
ATOM     38  O   UNK A   3      -0.677  28.092  12.465  0.00  0.00    +0.000 OA
ENDBRANCH  36  37
ENDBRANCH  34  36
ENDBRANCH  33  34
ENDBRANCH   1  33
TORSDOF 16
REMARK  Name = ../refined-set-2016/1b38/1b38_pocket.pdb
REMARK  238 active torsions:
REMARK  status: ('A' for Active; 'I' for Inactive)
REMARK    1  A    between atoms: _1  and  _3
REMARK    2  A    between atoms: _3  and  _4
REMARK    3  A    between atoms: _3  and  _6
REMARK    4  A    between atoms: _6  and  _7
REMARK    5  A    between atoms: _7  and  _8
REMARK    6  A    between atoms: _8  and  _9
REMARK    7  A    between atoms: _9  and  _10
REMARK    8  A    between atoms: _14  and  _16
REMARK    9  A    between atoms: _16  and  _17
REMARK   10  A    between atoms: _16  and  _19
REMARK   11  A    between atoms: _19  and  _20
REMARK   12  A    between atoms: _23  and  _25
REMARK   13  A    between atoms: _25  and  _26
REMARK   14  A    between atoms: _28  and  _30
REMARK   15  A    between atoms: _30  and  _31
REMARK   16  A    between atoms: _30  and  _33
REMARK   17  A    between atoms: _33  and  _34
REMARK   18  A    between atoms: _34  and  _35
REMARK   19  A    between atoms: _38  and  _40
REMARK   20  A    between atoms: _40  and  _41
REMARK   21  A    between atoms: _43  and  _45
REMARK   22  A    between atoms: _45  and  _46
REMARK   23  A    between atoms: _45  and  _48
REMARK   24  A    between atoms: _48  and  _49
REMARK   25  A    between atoms: _52  and  _54
REMARK   26  A    between atoms: _54  and  _55
REMARK   27  A    between atoms: _54  and  _57
REMARK   28  A    between atoms: _57  and  _58
REMARK   29  A    between atoms: _63  and  _64
REMARK   30  A    between atoms: _66  and  _68
REMARK   31  A    between atoms: _68  and  _69
REMARK   32  A    between atoms: _71  and  _73
REMARK   33  A    between atoms: _73  and  _74
REMARK   34  A    between atoms: _73  and  _76
REMARK   35  A    between atoms: _79  and  _81
REMARK   36  A    between atoms: _81  and  _82
REMARK   37  A    between atoms: _81  and  _84
REMARK   38  A    between atoms: _87  and  _89
REMARK   39  A    between atoms: _89  and  _90
REMARK   40  A    between atoms: _89  and  _92
REMARK   41  A    between atoms: _92  and  _93
REMARK   42  A    between atoms: _98  and  _99
REMARK   43  A    between atoms: _101  and  _103
REMARK   44  A    between atoms: _103  and  _104
REMARK   45  A    between atoms: _103  and  _106
REMARK   46  A    between atoms: _106  and  _107
REMARK   47  A    between atoms: _107  and  _108
REMARK   48  A    between atoms: _108  and  _109
REMARK   49  A    between atoms: _109  and  _110
REMARK   50  A    between atoms: _114  and  _116
REMARK   51  A    between atoms: _116  and  _117
REMARK   52  A    between atoms: _120  and  _122
REMARK   53  A    between atoms: _122  and  _123
REMARK   54  A    between atoms: _122  and  _125
REMARK   55  A    between atoms: _128  and  _130
REMARK   56  A    between atoms: _130  and  _131
REMARK   57  A    between atoms: _134  and  _136
REMARK   58  A    between atoms: _136  and  _137
REMARK   59  A    between atoms: _136  and  _139
REMARK   60  A    between atoms: _139  and  _140
REMARK   61  A    between atoms: _143  and  _145
REMARK   62  A    between atoms: _145  and  _146
REMARK   63  A    between atoms: _145  and  _148
REMARK   64  A    between atoms: _148  and  _149
REMARK   65  A    between atoms: _149  and  _150
REMARK   66  A    between atoms: _150  and  _151
REMARK   67  A    between atoms: _151  and  _152
REMARK   68  A    between atoms: _156  and  _158
REMARK   69  A    between atoms: _158  and  _159
REMARK   70  A    between atoms: _158  and  _161
REMARK   71  A    between atoms: _161  and  _162
REMARK   72  A    between atoms: _162  and  _163
REMARK   73  A    between atoms: _163  and  _164
REMARK   74  A    between atoms: _164  and  _165
REMARK   75  A    between atoms: _169  and  _171
REMARK   76  A    between atoms: _171  and  _172
REMARK   77  A    between atoms: _171  and  _174
REMARK   78  A    between atoms: _174  and  _175
REMARK   79  A    between atoms: _178  and  _180
REMARK   80  A    between atoms: _180  and  _181
REMARK   81  A    between atoms: _180  and  _183
REMARK   82  A    between atoms: _186  and  _188
REMARK   83  A    between atoms: _188  and  _189
REMARK   84  A    between atoms: _188  and  _191
REMARK   85  A    between atoms: _191  and  _192
REMARK   86  A    between atoms: _192  and  _193
REMARK   87  A    between atoms: _193  and  _194
REMARK   88  A    between atoms: _194  and  _195
REMARK   89  A    between atoms: _199  and  _201
REMARK   90  A    between atoms: _201  and  _202
REMARK   91  A    between atoms: _201  and  _204
REMARK   92  A    between atoms: _204  and  _205
REMARK   93  A    between atoms: _208  and  _210
REMARK   94  A    between atoms: _210  and  _211
REMARK   95  A    between atoms: _210  and  _213
REMARK   96  A    between atoms: _213  and  _214
REMARK   97  A    between atoms: _217  and  _219
REMARK   98  A    between atoms: _219  and  _220
REMARK   99  A    between atoms: _219  and  _222
REMARK  100  A    between atoms: _225  and  _227
REMARK  101  A    between atoms: _227  and  _228
REMARK  102  A    between atoms: _227  and  _230
REMARK  103  A    between atoms: _230  and  _231
REMARK  104  A    between atoms: _237  and  _239
REMARK  105  A    between atoms: _239  and  _240
REMARK  106  A    between atoms: _239  and  _242
REMARK  107  A    between atoms: _242  and  _243
REMARK  108  A    between atoms: _243  and  _244
REMARK  109  A    between atoms: _247  and  _249
REMARK  110  A    between atoms: _249  and  _250
REMARK  111  A    between atoms: _249  and  _252
REMARK  112  A    between atoms: _252  and  _253
REMARK  113  A    between atoms: _259  and  _261
REMARK  114  A    between atoms: _261  and  _262
REMARK  115  A    between atoms: _261  and  _264
REMARK  116  A    between atoms: _264  and  _265
REMARK  117  A    between atoms: _268  and  _270
REMARK  118  A    between atoms: _270  and  _271
REMARK  119  A    between atoms: _270  and  _273
REMARK  120  A    between atoms: _273  and  _274
REMARK  121  A    between atoms: _279  and  _281
REMARK  122  A    between atoms: _281  and  _282
REMARK  123  A    between atoms: _281  and  _284
REMARK  124  A    between atoms: _284  and  _285
REMARK  125  A    between atoms: _285  and  _286
REMARK  126  A    between atoms: _291  and  _293
REMARK  127  A    between atoms: _293  and  _294
REMARK  128  A    between atoms: _293  and  _296
REMARK  129  A    between atoms: _296  and  _297
REMARK  130  A    between atoms: _300  and  _302
REMARK  131  A    between atoms: _302  and  _303
REMARK  132  A    between atoms: _302  and  _305
REMARK  133  A    between atoms: _305  and  _306
REMARK  134  A    between atoms: _309  and  _311
REMARK  135  A    between atoms: _311  and  _312
REMARK  136  A    between atoms: _311  and  _314
REMARK  137  A    between atoms: _314  and  _315
REMARK  138  A    between atoms: _315  and  _316
REMARK  139  A    between atoms: _316  and  _317
REMARK  140  A    between atoms: _317  and  _318
REMARK  141  A    between atoms: _322  and  _324
REMARK  142  A    between atoms: _324  and  _325
REMARK  143  A    between atoms: _324  and  _327
REMARK  144  A    between atoms: _327  and  _328
REMARK  145  A    between atoms: _328  and  _329
REMARK  146  A    between atoms: _329  and  _330
REMARK  147  A    between atoms: _330  and  _331
REMARK  148  A    between atoms: _335  and  _337
REMARK  149  A    between atoms: _337  and  _338
REMARK  150  A    between atoms: _337  and  _340
REMARK  151  A    between atoms: _340  and  _341
REMARK  152  A    between atoms: _346  and  _348
REMARK  153  A    between atoms: _348  and  _349
REMARK  154  A    between atoms: _348  and  _351
REMARK  155  A    between atoms: _351  and  _352
REMARK  156  A    between atoms: _355  and  _357
REMARK  157  A    between atoms: _357  and  _358
REMARK  158  A    between atoms: _357  and  _360
REMARK  159  A    between atoms: _360  and  _361
REMARK  160  A    between atoms: _364  and  _366
REMARK  161  A    between atoms: _366  and  _367
REMARK  162  A    between atoms: _366  and  _369
REMARK  163  A    between atoms: _369  and  _370
REMARK  164  A    between atoms: _370  and  _371
REMARK  165  A    between atoms: _371  and  _372
REMARK  166  A    between atoms: _372  and  _373
REMARK  167  A    between atoms: _378  and  _379
REMARK  168  A    between atoms: _384  and  _386
REMARK  169  A    between atoms: _386  and  _387
REMARK  170  A    between atoms: _386  and  _389
REMARK  171  A    between atoms: _389  and  _390
REMARK  172  A    between atoms: _390  and  _391
REMARK  173  A    between atoms: _396  and  _398
REMARK  174  A    between atoms: _398  and  _399
REMARK  175  A    between atoms: _398  and  _401
REMARK  176  A    between atoms: _401  and  _402
REMARK  177  A    between atoms: _407  and  _409
REMARK  178  A    between atoms: _409  and  _410
REMARK  179  A    between atoms: _409  and  _412
REMARK  180  A    between atoms: _412  and  _413
REMARK  181  A    between atoms: _416  and  _418
REMARK  182  A    between atoms: _418  and  _419
REMARK  183  A    between atoms: _418  and  _421
REMARK  184  A    between atoms: _421  and  _422
REMARK  185  A    between atoms: _425  and  _427
REMARK  186  A    between atoms: _427  and  _428
REMARK  187  A    between atoms: _427  and  _430
REMARK  188  A    between atoms: _430  and  _431
REMARK  189  A    between atoms: _434  and  _436
REMARK  190  A    between atoms: _436  and  _437
REMARK  191  A    between atoms: _436  and  _439
REMARK  192  A    between atoms: _439  and  _440
REMARK  193  A    between atoms: _443  and  _445
REMARK  194  A    between atoms: _445  and  _446
REMARK  195  A    between atoms: _449  and  _451
REMARK  196  A    between atoms: _451  and  _452
REMARK  197  A    between atoms: _451  and  _454
REMARK  198  A    between atoms: _454  and  _455
REMARK  199  A    between atoms: _455  and  _457
REMARK  200  A    between atoms: _457  and  MG_558
REMARK  201  A    between atoms: _458  and  _460
REMARK  202  A    between atoms: _460  and  _461
REMARK  203  A    between atoms: _460  and  _463
REMARK  204  A    between atoms: _463  and  _464
REMARK  205  A    between atoms: _470  and  _472
REMARK  206  A    between atoms: _472  and  _473
REMARK  207  A    between atoms: _472  and  _475
REMARK  208  A    between atoms: _475  and  _476
REMARK  209  A    between atoms: _479  and  _481
REMARK  210  A    between atoms: _481  and  _482
REMARK  211  A    between atoms: _485  and  _487
REMARK  212  A    between atoms: _487  and  _488
REMARK  213  A    between atoms: _487  and  _490
REMARK  214  A    between atoms: _494  and  _495
REMARK  215  A    between atoms: _500  and  _502
REMARK  216  A    between atoms: _502  and  _503
REMARK  217  A    between atoms: _502  and  _505
REMARK  218  A    between atoms: _505  and  _506
REMARK  219  A    between atoms: _509  and  _511
REMARK  220  A    between atoms: _511  and  _512
REMARK  221  A    between atoms: _511  and  _514
REMARK  222  A    between atoms: _514  and  _515
REMARK  223  A    between atoms: _520  and  _521
REMARK  224  A    between atoms: _523  and  _525
REMARK  225  A    between atoms: _525  and  _526
REMARK  226  A    between atoms: _525  and  _528
REMARK  227  A    between atoms: _528  and  _529
REMARK  228  A    between atoms: _529  and  _530
REMARK  229  A    between atoms: _533  and  _535
REMARK  230  A    between atoms: _535  and  _536
REMARK  231  A    between atoms: _535  and  _538
REMARK  232  A    between atoms: _541  and  _543
REMARK  233  A    between atoms: _543  and  _544
REMARK  234  A    between atoms: _543  and  _546
REMARK  235  A    between atoms: _549  and  _551
REMARK  236  A    between atoms: _551  and  _552
REMARK  237  A    between atoms: _551  and  _554
REMARK  238  A    between atoms: _554  and  _555
REMARK                            x       y       z     vdW  Elec       q    Type
REMARK                         _______ _______ _______ _____ _____    ______ ____
ROOT
ATOM      1  C   LEU A   1      -9.935  30.848  17.939  0.00  0.00    +0.238 C 
ATOM      2  N   ALA A   2      -9.284  30.551  19.057  0.00  0.00    -0.298 N 
ATOM      3  H   ALA A   2      -8.370  31.019  19.219  0.00  0.00    +0.150 HD
ATOM      4  O   LEU A   1     -11.031  30.260  17.743  0.00  0.00    -0.274 OA
ENDROOT
BRANCH   2   5
ATOM      5  CA  ALA A   2      -9.755  29.614  20.080  0.00  0.00    +0.137 C 
ATOM      6  CB  ALA A   2      -8.627  29.449  21.098  0.00  0.00    +0.030 C 
BRANCH   5   7
ATOM      7  C   ALA A   2     -11.014  30.154  20.765  0.00  0.00    +0.227 C 
ATOM      8  O   ALA A   2     -11.997  29.468  21.086  0.00  0.00    -0.286 OA
ENDBRANCH   5   7
ENDBRANCH   2   5
BRANCH   1   9
ATOM      9  CA  LEU A   1      -9.357  31.798  16.910  0.00  0.00    +0.145 C 
BRANCH   9  10
ATOM     10  N   LEU A   1      -8.526  32.886  17.402  0.00  0.00    -0.238 NA
ATOM     11  H   LEU A   1      -7.520  32.896  17.137  0.00  0.00    +0.142 HD
ENDBRANCH   9  10
BRANCH   9  12
ATOM     12  CB  LEU A   1      -8.534  31.038  15.839  0.00  0.00    +0.026 C 
BRANCH  12  13
ATOM     13  CG  LEU A   1      -8.138  31.845  14.590  0.00  0.00    +0.002 C 
ATOM     14  CD2 LEU A   1      -9.251  32.787  14.131  0.00  0.00    +0.000 C 
ATOM     15  CD1 LEU A   1      -7.789  30.909  13.459  0.00  0.00    +0.000 C 
ENDBRANCH  12  13
ENDBRANCH   9  12
ENDBRANCH   1   9
TORSDOF 6
REMARK  Name = ../refined-set-2016/1b38/1b38_pocket.pdb
REMARK  238 active torsions:
REMARK  status: ('A' for Active; 'I' for Inactive)
REMARK    1  A    between atoms: _1  and  _3
REMARK    2  A    between atoms: _3  and  _4
REMARK    3  A    between atoms: _3  and  _6
REMARK    4  A    between atoms: _6  and  _7
REMARK    5  A    between atoms: _7  and  _8
REMARK    6  A    between atoms: _8  and  _9
REMARK    7  A    between atoms: _9  and  _10
REMARK    8  A    between atoms: _14  and  _16
REMARK    9  A    between atoms: _16  and  _17
REMARK   10  A    between atoms: _16  and  _19
REMARK   11  A    between atoms: _19  and  _20
REMARK   12  A    between atoms: _23  and  _25
REMARK   13  A    between atoms: _25  and  _26
REMARK   14  A    between atoms: _28  and  _30
REMARK   15  A    between atoms: _30  and  _31
REMARK   16  A    between atoms: _30  and  _33
REMARK   17  A    between atoms: _33  and  _34
REMARK   18  A    between atoms: _34  and  _35
REMARK   19  A    between atoms: _38  and  _40
REMARK   20  A    between atoms: _40  and  _41
REMARK   21  A    between atoms: _43  and  _45
REMARK   22  A    between atoms: _45  and  _46
REMARK   23  A    between atoms: _45  and  _48
REMARK   24  A    between atoms: _48  and  _49
REMARK   25  A    between atoms: _52  and  _54
REMARK   26  A    between atoms: _54  and  _55
REMARK   27  A    between atoms: _54  and  _57
REMARK   28  A    between atoms: _57  and  _58
REMARK   29  A    between atoms: _63  and  _64
REMARK   30  A    between atoms: _66  and  _68
REMARK   31  A    between atoms: _68  and  _69
REMARK   32  A    between atoms: _71  and  _73
REMARK   33  A    between atoms: _73  and  _74
REMARK   34  A    between atoms: _73  and  _76
REMARK   35  A    between atoms: _79  and  _81
REMARK   36  A    between atoms: _81  and  _82
REMARK   37  A    between atoms: _81  and  _84
REMARK   38  A    between atoms: _87  and  _89
REMARK   39  A    between atoms: _89  and  _90
REMARK   40  A    between atoms: _89  and  _92
REMARK   41  A    between atoms: _92  and  _93
REMARK   42  A    between atoms: _98  and  _99
REMARK   43  A    between atoms: _101  and  _103
REMARK   44  A    between atoms: _103  and  _104
REMARK   45  A    between atoms: _103  and  _106
REMARK   46  A    between atoms: _106  and  _107
REMARK   47  A    between atoms: _107  and  _108
REMARK   48  A    between atoms: _108  and  _109
REMARK   49  A    between atoms: _109  and  _110
REMARK   50  A    between atoms: _114  and  _116
REMARK   51  A    between atoms: _116  and  _117
REMARK   52  A    between atoms: _120  and  _122
REMARK   53  A    between atoms: _122  and  _123
REMARK   54  A    between atoms: _122  and  _125
REMARK   55  A    between atoms: _128  and  _130
REMARK   56  A    between atoms: _130  and  _131
REMARK   57  A    between atoms: _134  and  _136
REMARK   58  A    between atoms: _136  and  _137
REMARK   59  A    between atoms: _136  and  _139
REMARK   60  A    between atoms: _139  and  _140
REMARK   61  A    between atoms: _143  and  _145
REMARK   62  A    between atoms: _145  and  _146
REMARK   63  A    between atoms: _145  and  _148
REMARK   64  A    between atoms: _148  and  _149
REMARK   65  A    between atoms: _149  and  _150
REMARK   66  A    between atoms: _150  and  _151
REMARK   67  A    between atoms: _151  and  _152
REMARK   68  A    between atoms: _156  and  _158
REMARK   69  A    between atoms: _158  and  _159
REMARK   70  A    between atoms: _158  and  _161
REMARK   71  A    between atoms: _161  and  _162
REMARK   72  A    between atoms: _162  and  _163
REMARK   73  A    between atoms: _163  and  _164
REMARK   74  A    between atoms: _164  and  _165
REMARK   75  A    between atoms: _169  and  _171
REMARK   76  A    between atoms: _171  and  _172
REMARK   77  A    between atoms: _171  and  _174
REMARK   78  A    between atoms: _174  and  _175
REMARK   79  A    between atoms: _178  and  _180
REMARK   80  A    between atoms: _180  and  _181
REMARK   81  A    between atoms: _180  and  _183
REMARK   82  A    between atoms: _186  and  _188
REMARK   83  A    between atoms: _188  and  _189
REMARK   84  A    between atoms: _188  and  _191
REMARK   85  A    between atoms: _191  and  _192
REMARK   86  A    between atoms: _192  and  _193
REMARK   87  A    between atoms: _193  and  _194
REMARK   88  A    between atoms: _194  and  _195
REMARK   89  A    between atoms: _199  and  _201
REMARK   90  A    between atoms: _201  and  _202
REMARK   91  A    between atoms: _201  and  _204
REMARK   92  A    between atoms: _204  and  _205
REMARK   93  A    between atoms: _208  and  _210
REMARK   94  A    between atoms: _210  and  _211
REMARK   95  A    between atoms: _210  and  _213
REMARK   96  A    between atoms: _213  and  _214
REMARK   97  A    between atoms: _217  and  _219
REMARK   98  A    between atoms: _219  and  _220
REMARK   99  A    between atoms: _219  and  _222
REMARK  100  A    between atoms: _225  and  _227
REMARK  101  A    between atoms: _227  and  _228
REMARK  102  A    between atoms: _227  and  _230
REMARK  103  A    between atoms: _230  and  _231
REMARK  104  A    between atoms: _237  and  _239
REMARK  105  A    between atoms: _239  and  _240
REMARK  106  A    between atoms: _239  and  _242
REMARK  107  A    between atoms: _242  and  _243
REMARK  108  A    between atoms: _243  and  _244
REMARK  109  A    between atoms: _247  and  _249
REMARK  110  A    between atoms: _249  and  _250
REMARK  111  A    between atoms: _249  and  _252
REMARK  112  A    between atoms: _252  and  _253
REMARK  113  A    between atoms: _259  and  _261
REMARK  114  A    between atoms: _261  and  _262
REMARK  115  A    between atoms: _261  and  _264
REMARK  116  A    between atoms: _264  and  _265
REMARK  117  A    between atoms: _268  and  _270
REMARK  118  A    between atoms: _270  and  _271
REMARK  119  A    between atoms: _270  and  _273
REMARK  120  A    between atoms: _273  and  _274
REMARK  121  A    between atoms: _279  and  _281
REMARK  122  A    between atoms: _281  and  _282
REMARK  123  A    between atoms: _281  and  _284
REMARK  124  A    between atoms: _284  and  _285
REMARK  125  A    between atoms: _285  and  _286
REMARK  126  A    between atoms: _291  and  _293
REMARK  127  A    between atoms: _293  and  _294
REMARK  128  A    between atoms: _293  and  _296
REMARK  129  A    between atoms: _296  and  _297
REMARK  130  A    between atoms: _300  and  _302
REMARK  131  A    between atoms: _302  and  _303
REMARK  132  A    between atoms: _302  and  _305
REMARK  133  A    between atoms: _305  and  _306
REMARK  134  A    between atoms: _309  and  _311
REMARK  135  A    between atoms: _311  and  _312
REMARK  136  A    between atoms: _311  and  _314
REMARK  137  A    between atoms: _314  and  _315
REMARK  138  A    between atoms: _315  and  _316
REMARK  139  A    between atoms: _316  and  _317
REMARK  140  A    between atoms: _317  and  _318
REMARK  141  A    between atoms: _322  and  _324
REMARK  142  A    between atoms: _324  and  _325
REMARK  143  A    between atoms: _324  and  _327
REMARK  144  A    between atoms: _327  and  _328
REMARK  145  A    between atoms: _328  and  _329
REMARK  146  A    between atoms: _329  and  _330
REMARK  147  A    between atoms: _330  and  _331
REMARK  148  A    between atoms: _335  and  _337
REMARK  149  A    between atoms: _337  and  _338
REMARK  150  A    between atoms: _337  and  _340
REMARK  151  A    between atoms: _340  and  _341
REMARK  152  A    between atoms: _346  and  _348
REMARK  153  A    between atoms: _348  and  _349
REMARK  154  A    between atoms: _348  and  _351
REMARK  155  A    between atoms: _351  and  _352
REMARK  156  A    between atoms: _355  and  _357
REMARK  157  A    between atoms: _357  and  _358
REMARK  158  A    between atoms: _357  and  _360
REMARK  159  A    between atoms: _360  and  _361
REMARK  160  A    between atoms: _364  and  _366
REMARK  161  A    between atoms: _366  and  _367
REMARK  162  A    between atoms: _366  and  _369
REMARK  163  A    between atoms: _369  and  _370
REMARK  164  A    between atoms: _370  and  _371
REMARK  165  A    between atoms: _371  and  _372
REMARK  166  A    between atoms: _372  and  _373
REMARK  167  A    between atoms: _378  and  _379
REMARK  168  A    between atoms: _384  and  _386
REMARK  169  A    between atoms: _386  and  _387
REMARK  170  A    between atoms: _386  and  _389
REMARK  171  A    between atoms: _389  and  _390
REMARK  172  A    between atoms: _390  and  _391
REMARK  173  A    between atoms: _396  and  _398
REMARK  174  A    between atoms: _398  and  _399
REMARK  175  A    between atoms: _398  and  _401
REMARK  176  A    between atoms: _401  and  _402
REMARK  177  A    between atoms: _407  and  _409
REMARK  178  A    between atoms: _409  and  _410
REMARK  179  A    between atoms: _409  and  _412
REMARK  180  A    between atoms: _412  and  _413
REMARK  181  A    between atoms: _416  and  _418
REMARK  182  A    between atoms: _418  and  _419
REMARK  183  A    between atoms: _418  and  _421
REMARK  184  A    between atoms: _421  and  _422
REMARK  185  A    between atoms: _425  and  _427
REMARK  186  A    between atoms: _427  and  _428
REMARK  187  A    between atoms: _427  and  _430
REMARK  188  A    between atoms: _430  and  _431
REMARK  189  A    between atoms: _434  and  _436
REMARK  190  A    between atoms: _436  and  _437
REMARK  191  A    between atoms: _436  and  _439
REMARK  192  A    between atoms: _439  and  _440
REMARK  193  A    between atoms: _443  and  _445
REMARK  194  A    between atoms: _445  and  _446
REMARK  195  A    between atoms: _449  and  _451
REMARK  196  A    between atoms: _451  and  _452
REMARK  197  A    between atoms: _451  and  _454
REMARK  198  A    between atoms: _454  and  _455
REMARK  199  A    between atoms: _455  and  _457
REMARK  200  A    between atoms: _457  and  MG_558
REMARK  201  A    between atoms: _458  and  _460
REMARK  202  A    between atoms: _460  and  _461
REMARK  203  A    between atoms: _460  and  _463
REMARK  204  A    between atoms: _463  and  _464
REMARK  205  A    between atoms: _470  and  _472
REMARK  206  A    between atoms: _472  and  _473
REMARK  207  A    between atoms: _472  and  _475
REMARK  208  A    between atoms: _475  and  _476
REMARK  209  A    between atoms: _479  and  _481
REMARK  210  A    between atoms: _481  and  _482
REMARK  211  A    between atoms: _485  and  _487
REMARK  212  A    between atoms: _487  and  _488
REMARK  213  A    between atoms: _487  and  _490
REMARK  214  A    between atoms: _494  and  _495
REMARK  215  A    between atoms: _500  and  _502
REMARK  216  A    between atoms: _502  and  _503
REMARK  217  A    between atoms: _502  and  _505
REMARK  218  A    between atoms: _505  and  _506
REMARK  219  A    between atoms: _509  and  _511
REMARK  220  A    between atoms: _511  and  _512
REMARK  221  A    between atoms: _511  and  _514
REMARK  222  A    between atoms: _514  and  _515
REMARK  223  A    between atoms: _520  and  _521
REMARK  224  A    between atoms: _523  and  _525
REMARK  225  A    between atoms: _525  and  _526
REMARK  226  A    between atoms: _525  and  _528
REMARK  227  A    between atoms: _528  and  _529
REMARK  228  A    between atoms: _529  and  _530
REMARK  229  A    between atoms: _533  and  _535
REMARK  230  A    between atoms: _535  and  _536
REMARK  231  A    between atoms: _535  and  _538
REMARK  232  A    between atoms: _541  and  _543
REMARK  233  A    between atoms: _543  and  _544
REMARK  234  A    between atoms: _543  and  _546
REMARK  235  A    between atoms: _549  and  _551
REMARK  236  A    between atoms: _551  and  _552
REMARK  237  A    between atoms: _551  and  _554
REMARK  238  A    between atoms: _554  and  _555
REMARK                            x       y       z     vdW  Elec       q    Type
REMARK                         _______ _______ _______ _____ _____    ______ ____
ROOT
ATOM      1  C   VAL A   1     -11.102  22.894  21.830  0.00  0.00    +0.241 C 
ATOM      2  O   VAL A   1     -10.923  22.417  22.952  0.00  0.00    -0.273 OA
ATOM      3  N   PRO A   2     -11.388  22.112  20.791  0.00  0.00    -0.273 N 
ATOM      4  CA  PRO A   2     -11.677  20.693  20.904  0.00  0.00    +0.140 C 
ATOM      5  CB  PRO A   2     -12.161  20.296  19.507  0.00  0.00    +0.030 C 
ATOM      6  CG  PRO A   2     -11.705  21.382  18.597  0.00  0.00    +0.024 C 
ATOM      7  CD  PRO A   2     -11.625  22.632  19.418  0.00  0.00    +0.094 C 
ENDROOT
BRANCH   4   8
ATOM      8  C   PRO A   2     -10.570  19.772  21.373  0.00  0.00    +0.227 C 
ATOM      9  O   PRO A   2      -9.418  20.076  21.061  0.00  0.00    -0.286 OA
ENDBRANCH   4   8
BRANCH   1  10
ATOM     10  CA  VAL A   1     -10.936  24.395  21.539  0.00  0.00    +0.145 C 
BRANCH  10  11
ATOM     11  CB  VAL A   1      -9.739  24.888  22.362  0.00  0.00    +0.025 C 
ATOM     12  CG2 VAL A   1      -9.404  26.346  22.121  0.00  0.00    +0.002 C 
ATOM     13  CG1 VAL A   1      -8.499  24.041  22.067  0.00  0.00    +0.002 C 
ENDBRANCH  10  11
BRANCH  10  14
ATOM     14  N   VAL A   1     -12.199  25.139  21.726  0.00  0.00    -0.238 NA
ATOM     15  H   VAL A   1     -12.663  25.121  22.657  0.00  0.00    +0.142 HD
ENDBRANCH  10  14
ENDBRANCH   1  10
TORSDOF 4
REMARK  Name = ../refined-set-2016/1b38/1b38_pocket.pdb
REMARK  238 active torsions:
REMARK  status: ('A' for Active; 'I' for Inactive)
REMARK    1  A    between atoms: _1  and  _3
REMARK    2  A    between atoms: _3  and  _4
REMARK    3  A    between atoms: _3  and  _6
REMARK    4  A    between atoms: _6  and  _7
REMARK    5  A    between atoms: _7  and  _8
REMARK    6  A    between atoms: _8  and  _9
REMARK    7  A    between atoms: _9  and  _10
REMARK    8  A    between atoms: _14  and  _16
REMARK    9  A    between atoms: _16  and  _17
REMARK   10  A    between atoms: _16  and  _19
REMARK   11  A    between atoms: _19  and  _20
REMARK   12  A    between atoms: _23  and  _25
REMARK   13  A    between atoms: _25  and  _26
REMARK   14  A    between atoms: _28  and  _30
REMARK   15  A    between atoms: _30  and  _31
REMARK   16  A    between atoms: _30  and  _33
REMARK   17  A    between atoms: _33  and  _34
REMARK   18  A    between atoms: _34  and  _35
REMARK   19  A    between atoms: _38  and  _40
REMARK   20  A    between atoms: _40  and  _41
REMARK   21  A    between atoms: _43  and  _45
REMARK   22  A    between atoms: _45  and  _46
REMARK   23  A    between atoms: _45  and  _48
REMARK   24  A    between atoms: _48  and  _49
REMARK   25  A    between atoms: _52  and  _54
REMARK   26  A    between atoms: _54  and  _55
REMARK   27  A    between atoms: _54  and  _57
REMARK   28  A    between atoms: _57  and  _58
REMARK   29  A    between atoms: _63  and  _64
REMARK   30  A    between atoms: _66  and  _68
REMARK   31  A    between atoms: _68  and  _69
REMARK   32  A    between atoms: _71  and  _73
REMARK   33  A    between atoms: _73  and  _74
REMARK   34  A    between atoms: _73  and  _76
REMARK   35  A    between atoms: _79  and  _81
REMARK   36  A    between atoms: _81  and  _82
REMARK   37  A    between atoms: _81  and  _84
REMARK   38  A    between atoms: _87  and  _89
REMARK   39  A    between atoms: _89  and  _90
REMARK   40  A    between atoms: _89  and  _92
REMARK   41  A    between atoms: _92  and  _93
REMARK   42  A    between atoms: _98  and  _99
REMARK   43  A    between atoms: _101  and  _103
REMARK   44  A    between atoms: _103  and  _104
REMARK   45  A    between atoms: _103  and  _106
REMARK   46  A    between atoms: _106  and  _107
REMARK   47  A    between atoms: _107  and  _108
REMARK   48  A    between atoms: _108  and  _109
REMARK   49  A    between atoms: _109  and  _110
REMARK   50  A    between atoms: _114  and  _116
REMARK   51  A    between atoms: _116  and  _117
REMARK   52  A    between atoms: _120  and  _122
REMARK   53  A    between atoms: _122  and  _123
REMARK   54  A    between atoms: _122  and  _125
REMARK   55  A    between atoms: _128  and  _130
REMARK   56  A    between atoms: _130  and  _131
REMARK   57  A    between atoms: _134  and  _136
REMARK   58  A    between atoms: _136  and  _137
REMARK   59  A    between atoms: _136  and  _139
REMARK   60  A    between atoms: _139  and  _140
REMARK   61  A    between atoms: _143  and  _145
REMARK   62  A    between atoms: _145  and  _146
REMARK   63  A    between atoms: _145  and  _148
REMARK   64  A    between atoms: _148  and  _149
REMARK   65  A    between atoms: _149  and  _150
REMARK   66  A    between atoms: _150  and  _151
REMARK   67  A    between atoms: _151  and  _152
REMARK   68  A    between atoms: _156  and  _158
REMARK   69  A    between atoms: _158  and  _159
REMARK   70  A    between atoms: _158  and  _161
REMARK   71  A    between atoms: _161  and  _162
REMARK   72  A    between atoms: _162  and  _163
REMARK   73  A    between atoms: _163  and  _164
REMARK   74  A    between atoms: _164  and  _165
REMARK   75  A    between atoms: _169  and  _171
REMARK   76  A    between atoms: _171  and  _172
REMARK   77  A    between atoms: _171  and  _174
REMARK   78  A    between atoms: _174  and  _175
REMARK   79  A    between atoms: _178  and  _180
REMARK   80  A    between atoms: _180  and  _181
REMARK   81  A    between atoms: _180  and  _183
REMARK   82  A    between atoms: _186  and  _188
REMARK   83  A    between atoms: _188  and  _189
REMARK   84  A    between atoms: _188  and  _191
REMARK   85  A    between atoms: _191  and  _192
REMARK   86  A    between atoms: _192  and  _193
REMARK   87  A    between atoms: _193  and  _194
REMARK   88  A    between atoms: _194  and  _195
REMARK   89  A    between atoms: _199  and  _201
REMARK   90  A    between atoms: _201  and  _202
REMARK   91  A    between atoms: _201  and  _204
REMARK   92  A    between atoms: _204  and  _205
REMARK   93  A    between atoms: _208  and  _210
REMARK   94  A    between atoms: _210  and  _211
REMARK   95  A    between atoms: _210  and  _213
REMARK   96  A    between atoms: _213  and  _214
REMARK   97  A    between atoms: _217  and  _219
REMARK   98  A    between atoms: _219  and  _220
REMARK   99  A    between atoms: _219  and  _222
REMARK  100  A    between atoms: _225  and  _227
REMARK  101  A    between atoms: _227  and  _228
REMARK  102  A    between atoms: _227  and  _230
REMARK  103  A    between atoms: _230  and  _231
REMARK  104  A    between atoms: _237  and  _239
REMARK  105  A    between atoms: _239  and  _240
REMARK  106  A    between atoms: _239  and  _242
REMARK  107  A    between atoms: _242  and  _243
REMARK  108  A    between atoms: _243  and  _244
REMARK  109  A    between atoms: _247  and  _249
REMARK  110  A    between atoms: _249  and  _250
REMARK  111  A    between atoms: _249  and  _252
REMARK  112  A    between atoms: _252  and  _253
REMARK  113  A    between atoms: _259  and  _261
REMARK  114  A    between atoms: _261  and  _262
REMARK  115  A    between atoms: _261  and  _264
REMARK  116  A    between atoms: _264  and  _265
REMARK  117  A    between atoms: _268  and  _270
REMARK  118  A    between atoms: _270  and  _271
REMARK  119  A    between atoms: _270  and  _273
REMARK  120  A    between atoms: _273  and  _274
REMARK  121  A    between atoms: _279  and  _281
REMARK  122  A    between atoms: _281  and  _282
REMARK  123  A    between atoms: _281  and  _284
REMARK  124  A    between atoms: _284  and  _285
REMARK  125  A    between atoms: _285  and  _286
REMARK  126  A    between atoms: _291  and  _293
REMARK  127  A    between atoms: _293  and  _294
REMARK  128  A    between atoms: _293  and  _296
REMARK  129  A    between atoms: _296  and  _297
REMARK  130  A    between atoms: _300  and  _302
REMARK  131  A    between atoms: _302  and  _303
REMARK  132  A    between atoms: _302  and  _305
REMARK  133  A    between atoms: _305  and  _306
REMARK  134  A    between atoms: _309  and  _311
REMARK  135  A    between atoms: _311  and  _312
REMARK  136  A    between atoms: _311  and  _314
REMARK  137  A    between atoms: _314  and  _315
REMARK  138  A    between atoms: _315  and  _316
REMARK  139  A    between atoms: _316  and  _317
REMARK  140  A    between atoms: _317  and  _318
REMARK  141  A    between atoms: _322  and  _324
REMARK  142  A    between atoms: _324  and  _325
REMARK  143  A    between atoms: _324  and  _327
REMARK  144  A    between atoms: _327  and  _328
REMARK  145  A    between atoms: _328  and  _329
REMARK  146  A    between atoms: _329  and  _330
REMARK  147  A    between atoms: _330  and  _331
REMARK  148  A    between atoms: _335  and  _337
REMARK  149  A    between atoms: _337  and  _338
REMARK  150  A    between atoms: _337  and  _340
REMARK  151  A    between atoms: _340  and  _341
REMARK  152  A    between atoms: _346  and  _348
REMARK  153  A    between atoms: _348  and  _349
REMARK  154  A    between atoms: _348  and  _351
REMARK  155  A    between atoms: _351  and  _352
REMARK  156  A    between atoms: _355  and  _357
REMARK  157  A    between atoms: _357  and  _358
REMARK  158  A    between atoms: _357  and  _360
REMARK  159  A    between atoms: _360  and  _361
REMARK  160  A    between atoms: _364  and  _366
REMARK  161  A    between atoms: _366  and  _367
REMARK  162  A    between atoms: _366  and  _369
REMARK  163  A    between atoms: _369  and  _370
REMARK  164  A    between atoms: _370  and  _371
REMARK  165  A    between atoms: _371  and  _372
REMARK  166  A    between atoms: _372  and  _373
REMARK  167  A    between atoms: _378  and  _379
REMARK  168  A    between atoms: _384  and  _386
REMARK  169  A    between atoms: _386  and  _387
REMARK  170  A    between atoms: _386  and  _389
REMARK  171  A    between atoms: _389  and  _390
REMARK  172  A    between atoms: _390  and  _391
REMARK  173  A    between atoms: _396  and  _398
REMARK  174  A    between atoms: _398  and  _399
REMARK  175  A    between atoms: _398  and  _401
REMARK  176  A    between atoms: _401  and  _402
REMARK  177  A    between atoms: _407  and  _409
REMARK  178  A    between atoms: _409  and  _410
REMARK  179  A    between atoms: _409  and  _412
REMARK  180  A    between atoms: _412  and  _413
REMARK  181  A    between atoms: _416  and  _418
REMARK  182  A    between atoms: _418  and  _419
REMARK  183  A    between atoms: _418  and  _421
REMARK  184  A    between atoms: _421  and  _422
REMARK  185  A    between atoms: _425  and  _427
REMARK  186  A    between atoms: _427  and  _428
REMARK  187  A    between atoms: _427  and  _430
REMARK  188  A    between atoms: _430  and  _431
REMARK  189  A    between atoms: _434  and  _436
REMARK  190  A    between atoms: _436  and  _437
REMARK  191  A    between atoms: _436  and  _439
REMARK  192  A    between atoms: _439  and  _440
REMARK  193  A    between atoms: _443  and  _445
REMARK  194  A    between atoms: _445  and  _446
REMARK  195  A    between atoms: _449  and  _451
REMARK  196  A    between atoms: _451  and  _452
REMARK  197  A    between atoms: _451  and  _454
REMARK  198  A    between atoms: _454  and  _455
REMARK  199  A    between atoms: _455  and  _457
REMARK  200  A    between atoms: _457  and  MG_558
REMARK  201  A    between atoms: _458  and  _460
REMARK  202  A    between atoms: _460  and  _461
REMARK  203  A    between atoms: _460  and  _463
REMARK  204  A    between atoms: _463  and  _464
REMARK  205  A    between atoms: _470  and  _472
REMARK  206  A    between atoms: _472  and  _473
REMARK  207  A    between atoms: _472  and  _475
REMARK  208  A    between atoms: _475  and  _476
REMARK  209  A    between atoms: _479  and  _481
REMARK  210  A    between atoms: _481  and  _482
REMARK  211  A    between atoms: _485  and  _487
REMARK  212  A    between atoms: _487  and  _488
REMARK  213  A    between atoms: _487  and  _490
REMARK  214  A    between atoms: _494  and  _495
REMARK  215  A    between atoms: _500  and  _502
REMARK  216  A    between atoms: _502  and  _503
REMARK  217  A    between atoms: _502  and  _505
REMARK  218  A    between atoms: _505  and  _506
REMARK  219  A    between atoms: _509  and  _511
REMARK  220  A    between atoms: _511  and  _512
REMARK  221  A    between atoms: _511  and  _514
REMARK  222  A    between atoms: _514  and  _515
REMARK  223  A    between atoms: _520  and  _521
REMARK  224  A    between atoms: _523  and  _525
REMARK  225  A    between atoms: _525  and  _526
REMARK  226  A    between atoms: _525  and  _528
REMARK  227  A    between atoms: _528  and  _529
REMARK  228  A    between atoms: _529  and  _530
REMARK  229  A    between atoms: _533  and  _535
REMARK  230  A    between atoms: _535  and  _536
REMARK  231  A    between atoms: _535  and  _538
REMARK  232  A    between atoms: _541  and  _543
REMARK  233  A    between atoms: _543  and  _544
REMARK  234  A    between atoms: _543  and  _546
REMARK  235  A    between atoms: _549  and  _551
REMARK  236  A    between atoms: _551  and  _552
REMARK  237  A    between atoms: _551  and  _554
REMARK  238  A    between atoms: _554  and  _555
REMARK                            x       y       z     vdW  Elec       q    Type
REMARK                         _______ _______ _______ _____ _____    ______ ____
ROOT
ATOM      1  CA  TYR A   2     -10.829  18.254  12.842  0.00  0.00    +0.141 C 
ENDROOT
BRANCH   1   4
ATOM      2  C   THR A   1      -9.537  17.827  14.892  0.00  0.00    +0.241 C 
ATOM      3  O   THR A   1     -10.121  16.756  15.069  0.00  0.00    -0.274 OA
ATOM      4  N   TYR A   2      -9.788  18.576  13.821  0.00  0.00    -0.298 N 
ATOM      5  H   TYR A   2      -9.217  19.432  13.672  0.00  0.00    +0.150 HD
BRANCH   2   6
ATOM      6  CA  THR A   1      -8.413  18.297  15.811  0.00  0.00    +0.172 C 
BRANCH   6   7
ATOM      7  N   THR A   1      -8.372  17.429  16.979  0.00  0.00    -0.236 NA
ATOM      8  H   THR A   1      -7.566  16.783  17.098  0.00  0.00    +0.142 HD
ENDBRANCH   6   7
BRANCH   6   9
ATOM      9  CB  THR A   1      -7.128  18.229  14.959  0.00  0.00    +0.135 C 
ATOM     10  CG2 THR A   1      -5.858  18.529  15.736  0.00  0.00    +0.034 C 
BRANCH   9  11
ATOM     11  OG1 THR A   1      -7.021  16.883  14.448  0.00  0.00    -0.383 OA
ATOM     12  HG1 THR A   1      -6.204  16.805  13.895  0.00  0.00    +0.210 HD
ENDBRANCH   9  11
ENDBRANCH   6   9
ENDBRANCH   2   6
ENDBRANCH   1   4
BRANCH   1  13
ATOM     13  C   TYR A   2     -10.413  16.949  12.177  0.00  0.00    +0.227 C 
ATOM     14  O   TYR A   2     -11.222  16.080  11.845  0.00  0.00    -0.286 OA
ENDBRANCH   1  13
BRANCH   1  15
ATOM     15  CB  TYR A   2     -11.055  19.440  11.877  0.00  0.00    +0.054 C 
BRANCH  15  16
ATOM     16  CG  TYR A   2     -10.161  19.265  10.659  0.00  0.00    -0.020 A 
ATOM     17  CD2 TYR A   2      -8.790  19.404  10.842  0.00  0.00    -0.001 A 
ATOM     18  CE2 TYR A   2      -7.929  19.194   9.799  0.00  0.00    +0.036 A 
ATOM     19  CZ  TYR A   2      -8.428  18.855   8.558  0.00  0.00    +0.134 A 
ATOM     20  CE1 TYR A   2      -9.782  18.715   8.361  0.00  0.00    +0.036 A 
ATOM     21  CD1 TYR A   2     -10.653  18.909   9.418  0.00  0.00    -0.001 A 
BRANCH  19  22
ATOM     22  OH  TYR A   2      -7.513  18.666   7.541  0.00  0.00    -0.506 OA
ATOM     23  HH  TYR A   2      -6.598  18.814   7.890  0.00  0.00    +0.292 HD
ENDBRANCH  19  22
ENDBRANCH  15  16
ENDBRANCH   1  15
TORSDOF 9
REMARK  Name = ../refined-set-2016/1b38/1b38_pocket.pdb
REMARK  238 active torsions:
REMARK  status: ('A' for Active; 'I' for Inactive)
REMARK    1  A    between atoms: _1  and  _3
REMARK    2  A    between atoms: _3  and  _4
REMARK    3  A    between atoms: _3  and  _6
REMARK    4  A    between atoms: _6  and  _7
REMARK    5  A    between atoms: _7  and  _8
REMARK    6  A    between atoms: _8  and  _9
REMARK    7  A    between atoms: _9  and  _10
REMARK    8  A    between atoms: _14  and  _16
REMARK    9  A    between atoms: _16  and  _17
REMARK   10  A    between atoms: _16  and  _19
REMARK   11  A    between atoms: _19  and  _20
REMARK   12  A    between atoms: _23  and  _25
REMARK   13  A    between atoms: _25  and  _26
REMARK   14  A    between atoms: _28  and  _30
REMARK   15  A    between atoms: _30  and  _31
REMARK   16  A    between atoms: _30  and  _33
REMARK   17  A    between atoms: _33  and  _34
REMARK   18  A    between atoms: _34  and  _35
REMARK   19  A    between atoms: _38  and  _40
REMARK   20  A    between atoms: _40  and  _41
REMARK   21  A    between atoms: _43  and  _45
REMARK   22  A    between atoms: _45  and  _46
REMARK   23  A    between atoms: _45  and  _48
REMARK   24  A    between atoms: _48  and  _49
REMARK   25  A    between atoms: _52  and  _54
REMARK   26  A    between atoms: _54  and  _55
REMARK   27  A    between atoms: _54  and  _57
REMARK   28  A    between atoms: _57  and  _58
REMARK   29  A    between atoms: _63  and  _64
REMARK   30  A    between atoms: _66  and  _68
REMARK   31  A    between atoms: _68  and  _69
REMARK   32  A    between atoms: _71  and  _73
REMARK   33  A    between atoms: _73  and  _74
REMARK   34  A    between atoms: _73  and  _76
REMARK   35  A    between atoms: _79  and  _81
REMARK   36  A    between atoms: _81  and  _82
REMARK   37  A    between atoms: _81  and  _84
REMARK   38  A    between atoms: _87  and  _89
REMARK   39  A    between atoms: _89  and  _90
REMARK   40  A    between atoms: _89  and  _92
REMARK   41  A    between atoms: _92  and  _93
REMARK   42  A    between atoms: _98  and  _99
REMARK   43  A    between atoms: _101  and  _103
REMARK   44  A    between atoms: _103  and  _104
REMARK   45  A    between atoms: _103  and  _106
REMARK   46  A    between atoms: _106  and  _107
REMARK   47  A    between atoms: _107  and  _108
REMARK   48  A    between atoms: _108  and  _109
REMARK   49  A    between atoms: _109  and  _110
REMARK   50  A    between atoms: _114  and  _116
REMARK   51  A    between atoms: _116  and  _117
REMARK   52  A    between atoms: _120  and  _122
REMARK   53  A    between atoms: _122  and  _123
REMARK   54  A    between atoms: _122  and  _125
REMARK   55  A    between atoms: _128  and  _130
REMARK   56  A    between atoms: _130  and  _131
REMARK   57  A    between atoms: _134  and  _136
REMARK   58  A    between atoms: _136  and  _137
REMARK   59  A    between atoms: _136  and  _139
REMARK   60  A    between atoms: _139  and  _140
REMARK   61  A    between atoms: _143  and  _145
REMARK   62  A    between atoms: _145  and  _146
REMARK   63  A    between atoms: _145  and  _148
REMARK   64  A    between atoms: _148  and  _149
REMARK   65  A    between atoms: _149  and  _150
REMARK   66  A    between atoms: _150  and  _151
REMARK   67  A    between atoms: _151  and  _152
REMARK   68  A    between atoms: _156  and  _158
REMARK   69  A    between atoms: _158  and  _159
REMARK   70  A    between atoms: _158  and  _161
REMARK   71  A    between atoms: _161  and  _162
REMARK   72  A    between atoms: _162  and  _163
REMARK   73  A    between atoms: _163  and  _164
REMARK   74  A    between atoms: _164  and  _165
REMARK   75  A    between atoms: _169  and  _171
REMARK   76  A    between atoms: _171  and  _172
REMARK   77  A    between atoms: _171  and  _174
REMARK   78  A    between atoms: _174  and  _175
REMARK   79  A    between atoms: _178  and  _180
REMARK   80  A    between atoms: _180  and  _181
REMARK   81  A    between atoms: _180  and  _183
REMARK   82  A    between atoms: _186  and  _188
REMARK   83  A    between atoms: _188  and  _189
REMARK   84  A    between atoms: _188  and  _191
REMARK   85  A    between atoms: _191  and  _192
REMARK   86  A    between atoms: _192  and  _193
REMARK   87  A    between atoms: _193  and  _194
REMARK   88  A    between atoms: _194  and  _195
REMARK   89  A    between atoms: _199  and  _201
REMARK   90  A    between atoms: _201  and  _202
REMARK   91  A    between atoms: _201  and  _204
REMARK   92  A    between atoms: _204  and  _205
REMARK   93  A    between atoms: _208  and  _210
REMARK   94  A    between atoms: _210  and  _211
REMARK   95  A    between atoms: _210  and  _213
REMARK   96  A    between atoms: _213  and  _214
REMARK   97  A    between atoms: _217  and  _219
REMARK   98  A    between atoms: _219  and  _220
REMARK   99  A    between atoms: _219  and  _222
REMARK  100  A    between atoms: _225  and  _227
REMARK  101  A    between atoms: _227  and  _228
REMARK  102  A    between atoms: _227  and  _230
REMARK  103  A    between atoms: _230  and  _231
REMARK  104  A    between atoms: _237  and  _239
REMARK  105  A    between atoms: _239  and  _240
REMARK  106  A    between atoms: _239  and  _242
REMARK  107  A    between atoms: _242  and  _243
REMARK  108  A    between atoms: _243  and  _244
REMARK  109  A    between atoms: _247  and  _249
REMARK  110  A    between atoms: _249  and  _250
REMARK  111  A    between atoms: _249  and  _252
REMARK  112  A    between atoms: _252  and  _253
REMARK  113  A    between atoms: _259  and  _261
REMARK  114  A    between atoms: _261  and  _262
REMARK  115  A    between atoms: _261  and  _264
REMARK  116  A    between atoms: _264  and  _265
REMARK  117  A    between atoms: _268  and  _270
REMARK  118  A    between atoms: _270  and  _271
REMARK  119  A    between atoms: _270  and  _273
REMARK  120  A    between atoms: _273  and  _274
REMARK  121  A    between atoms: _279  and  _281
REMARK  122  A    between atoms: _281  and  _282
REMARK  123  A    between atoms: _281  and  _284
REMARK  124  A    between atoms: _284  and  _285
REMARK  125  A    between atoms: _285  and  _286
REMARK  126  A    between atoms: _291  and  _293
REMARK  127  A    between atoms: _293  and  _294
REMARK  128  A    between atoms: _293  and  _296
REMARK  129  A    between atoms: _296  and  _297
REMARK  130  A    between atoms: _300  and  _302
REMARK  131  A    between atoms: _302  and  _303
REMARK  132  A    between atoms: _302  and  _305
REMARK  133  A    between atoms: _305  and  _306
REMARK  134  A    between atoms: _309  and  _311
REMARK  135  A    between atoms: _311  and  _312
REMARK  136  A    between atoms: _311  and  _314
REMARK  137  A    between atoms: _314  and  _315
REMARK  138  A    between atoms: _315  and  _316
REMARK  139  A    between atoms: _316  and  _317
REMARK  140  A    between atoms: _317  and  _318
REMARK  141  A    between atoms: _322  and  _324
REMARK  142  A    between atoms: _324  and  _325
REMARK  143  A    between atoms: _324  and  _327
REMARK  144  A    between atoms: _327  and  _328
REMARK  145  A    between atoms: _328  and  _329
REMARK  146  A    between atoms: _329  and  _330
REMARK  147  A    between atoms: _330  and  _331
REMARK  148  A    between atoms: _335  and  _337
REMARK  149  A    between atoms: _337  and  _338
REMARK  150  A    between atoms: _337  and  _340
REMARK  151  A    between atoms: _340  and  _341
REMARK  152  A    between atoms: _346  and  _348
REMARK  153  A    between atoms: _348  and  _349
REMARK  154  A    between atoms: _348  and  _351
REMARK  155  A    between atoms: _351  and  _352
REMARK  156  A    between atoms: _355  and  _357
REMARK  157  A    between atoms: _357  and  _358
REMARK  158  A    between atoms: _357  and  _360
REMARK  159  A    between atoms: _360  and  _361
REMARK  160  A    between atoms: _364  and  _366
REMARK  161  A    between atoms: _366  and  _367
REMARK  162  A    between atoms: _366  and  _369
REMARK  163  A    between atoms: _369  and  _370
REMARK  164  A    between atoms: _370  and  _371
REMARK  165  A    between atoms: _371  and  _372
REMARK  166  A    between atoms: _372  and  _373
REMARK  167  A    between atoms: _378  and  _379
REMARK  168  A    between atoms: _384  and  _386
REMARK  169  A    between atoms: _386  and  _387
REMARK  170  A    between atoms: _386  and  _389
REMARK  171  A    between atoms: _389  and  _390
REMARK  172  A    between atoms: _390  and  _391
REMARK  173  A    between atoms: _396  and  _398
REMARK  174  A    between atoms: _398  and  _399
REMARK  175  A    between atoms: _398  and  _401
REMARK  176  A    between atoms: _401  and  _402
REMARK  177  A    between atoms: _407  and  _409
REMARK  178  A    between atoms: _409  and  _410
REMARK  179  A    between atoms: _409  and  _412
REMARK  180  A    between atoms: _412  and  _413
REMARK  181  A    between atoms: _416  and  _418
REMARK  182  A    between atoms: _418  and  _419
REMARK  183  A    between atoms: _418  and  _421
REMARK  184  A    between atoms: _421  and  _422
REMARK  185  A    between atoms: _425  and  _427
REMARK  186  A    between atoms: _427  and  _428
REMARK  187  A    between atoms: _427  and  _430
REMARK  188  A    between atoms: _430  and  _431
REMARK  189  A    between atoms: _434  and  _436
REMARK  190  A    between atoms: _436  and  _437
REMARK  191  A    between atoms: _436  and  _439
REMARK  192  A    between atoms: _439  and  _440
REMARK  193  A    between atoms: _443  and  _445
REMARK  194  A    between atoms: _445  and  _446
REMARK  195  A    between atoms: _449  and  _451
REMARK  196  A    between atoms: _451  and  _452
REMARK  197  A    between atoms: _451  and  _454
REMARK  198  A    between atoms: _454  and  _455
REMARK  199  A    between atoms: _455  and  _457
REMARK  200  A    between atoms: _457  and  MG_558
REMARK  201  A    between atoms: _458  and  _460
REMARK  202  A    between atoms: _460  and  _461
REMARK  203  A    between atoms: _460  and  _463
REMARK  204  A    between atoms: _463  and  _464
REMARK  205  A    between atoms: _470  and  _472
REMARK  206  A    between atoms: _472  and  _473
REMARK  207  A    between atoms: _472  and  _475
REMARK  208  A    between atoms: _475  and  _476
REMARK  209  A    between atoms: _479  and  _481
REMARK  210  A    between atoms: _481  and  _482
REMARK  211  A    between atoms: _485  and  _487
REMARK  212  A    between atoms: _487  and  _488
REMARK  213  A    between atoms: _487  and  _490
REMARK  214  A    between atoms: _494  and  _495
REMARK  215  A    between atoms: _500  and  _502
REMARK  216  A    between atoms: _502  and  _503
REMARK  217  A    between atoms: _502  and  _505
REMARK  218  A    between atoms: _505  and  _506
REMARK  219  A    between atoms: _509  and  _511
REMARK  220  A    between atoms: _511  and  _512
REMARK  221  A    between atoms: _511  and  _514
REMARK  222  A    between atoms: _514  and  _515
REMARK  223  A    between atoms: _520  and  _521
REMARK  224  A    between atoms: _523  and  _525
REMARK  225  A    between atoms: _525  and  _526
REMARK  226  A    between atoms: _525  and  _528
REMARK  227  A    between atoms: _528  and  _529
REMARK  228  A    between atoms: _529  and  _530
REMARK  229  A    between atoms: _533  and  _535
REMARK  230  A    between atoms: _535  and  _536
REMARK  231  A    between atoms: _535  and  _538
REMARK  232  A    between atoms: _541  and  _543
REMARK  233  A    between atoms: _543  and  _544
REMARK  234  A    between atoms: _543  and  _546
REMARK  235  A    between atoms: _549  and  _551
REMARK  236  A    between atoms: _551  and  _552
REMARK  237  A    between atoms: _551  and  _554
REMARK  238  A    between atoms: _554  and  _555
REMARK                            x       y       z     vdW  Elec       q    Type
REMARK                         _______ _______ _______ _____ _____    ______ ____
ROOT
ATOM      1  C   VAL A   2      -4.224  16.720  19.667  0.00  0.00    +0.241 C 
ATOM      2  N   VAL A   3      -4.989  17.251  20.624  0.00  0.00    -0.297 N 
ATOM      3  H   VAL A   3      -5.789  16.733  21.040  0.00  0.00    +0.150 HD
ATOM      4  O   VAL A   2      -3.266  17.312  19.156  0.00  0.00    -0.273 OA
ENDROOT
BRANCH   1   5
ATOM      5  CA  VAL A   2      -4.618  15.280  19.399  0.00  0.00    +0.148 C 
BRANCH   5   7
ATOM      6  C   GLU A   1      -5.477  15.138  17.125  0.00  0.00    +0.238 C 
ATOM      7  N   VAL A   2      -4.559  14.841  18.010  0.00  0.00    -0.297 N 
ATOM      8  H   VAL A   2      -3.748  14.264  17.707  0.00  0.00    +0.150 HD
ATOM      9  O   GLU A   1      -6.359  15.939  17.376  0.00  0.00    -0.274 OA
BRANCH   6  10
ATOM     10  CA  GLU A   1      -5.337  14.456  15.752  0.00  0.00    +0.145 C 
BRANCH  10  11
ATOM     11  N   GLU A   1      -6.650  14.353  15.162  0.00  0.00    -0.238 NA
ATOM     12  H   GLU A   1      -6.805  14.807  14.239  0.00  0.00    +0.142 HD
ENDBRANCH  10  11
BRANCH  10  13
ATOM     13  CB  GLU A   1      -4.360  15.198  14.846  0.00  0.00    +0.038 C 
BRANCH  13  14
ATOM     14  CG  GLU A   1      -3.388  16.139  15.526  0.00  0.00    +0.116 C 
BRANCH  14  15
ATOM     15  CD  GLU A   1      -2.512  16.912  14.552  0.00  0.00    +0.365 C 
ATOM     16  OE2 GLU A   1      -1.273  16.685  14.608  0.00  0.00    -0.246 OA
ATOM     17  OE1 GLU A   1      -3.082  17.716  13.766  0.00  0.00    -0.246 OA
ENDBRANCH  14  15
ENDBRANCH  13  14
ENDBRANCH  10  13
ENDBRANCH   6  10
ENDBRANCH   5   7
BRANCH   5  18
ATOM     18  CB  VAL A   2      -3.747  14.301  20.235  0.00  0.00    +0.027 C 
ATOM     19  CG2 VAL A   2      -3.542  14.800  21.657  0.00  0.00    +0.002 C 
ATOM     20  CG1 VAL A   2      -4.384  12.919  20.165  0.00  0.00    +0.002 C 
ENDBRANCH   5  18
ENDBRANCH   1   5
BRANCH   2  21
ATOM     21  CA  VAL A   3      -4.631  18.617  21.056  0.00  0.00    +0.149 C 
BRANCH  21  22
ATOM     22  C   VAL A   3      -3.382  18.597  21.939  0.00  0.00    +0.241 C 
ATOM     23  O   VAL A   3      -3.196  17.752  22.808  0.00  0.00    -0.273 OA
ATOM     24  N   THR A   4      -2.425  19.444  21.585  0.00  0.00    -0.296 N 
ATOM     25  H   THR A   4      -2.531  20.028  20.731  0.00  0.00    +0.150 HD
BRANCH  24  26
ATOM     26  CA  THR A   4      -1.237  19.547  22.395  0.00  0.00    +0.164 C 
BRANCH  26  27
ATOM     27  C   THR A   4      -1.586  20.272  23.728  0.00  0.00    +0.229 C 
ATOM     28  O   THR A   4      -2.098  21.389  23.782  0.00  0.00    -0.286 OA
ENDBRANCH  26  27
BRANCH  26  29
ATOM     29  CB  THR A   4      -0.053  20.259  21.795  0.00  0.00    +0.136 C 
ATOM     30  CG2 THR A   4      -0.172  21.755  21.799  0.00  0.00    +0.034 C 
BRANCH  29  31
ATOM     31  OG1 THR A   4       1.068  19.930  22.661  0.00  0.00    -0.382 OA
ATOM     32  HG1 THR A   4       1.199  18.949  22.671  0.00  0.00    +0.210 HD
ENDBRANCH  29  31
ENDBRANCH  26  29
ENDBRANCH  24  26
ENDBRANCH  21  22
BRANCH  21  33
ATOM     33  CB  VAL A   3      -5.822  19.352  21.656  0.00  0.00    +0.027 C 
ATOM     34  CG2 VAL A   3      -5.428  20.721  22.207  0.00  0.00    +0.002 C 
ATOM     35  CG1 VAL A   3      -6.788  19.533  20.481  0.00  0.00    +0.002 C 
ENDBRANCH  21  33
ENDBRANCH   2  21
TORSDOF 15
REMARK  Name = ../refined-set-2016/1b38/1b38_pocket.pdb
REMARK  238 active torsions:
REMARK  status: ('A' for Active; 'I' for Inactive)
REMARK    1  A    between atoms: _1  and  _3
REMARK    2  A    between atoms: _3  and  _4
REMARK    3  A    between atoms: _3  and  _6
REMARK    4  A    between atoms: _6  and  _7
REMARK    5  A    between atoms: _7  and  _8
REMARK    6  A    between atoms: _8  and  _9
REMARK    7  A    between atoms: _9  and  _10
REMARK    8  A    between atoms: _14  and  _16
REMARK    9  A    between atoms: _16  and  _17
REMARK   10  A    between atoms: _16  and  _19
REMARK   11  A    between atoms: _19  and  _20
REMARK   12  A    between atoms: _23  and  _25
REMARK   13  A    between atoms: _25  and  _26
REMARK   14  A    between atoms: _28  and  _30
REMARK   15  A    between atoms: _30  and  _31
REMARK   16  A    between atoms: _30  and  _33
REMARK   17  A    between atoms: _33  and  _34
REMARK   18  A    between atoms: _34  and  _35
REMARK   19  A    between atoms: _38  and  _40
REMARK   20  A    between atoms: _40  and  _41
REMARK   21  A    between atoms: _43  and  _45
REMARK   22  A    between atoms: _45  and  _46
REMARK   23  A    between atoms: _45  and  _48
REMARK   24  A    between atoms: _48  and  _49
REMARK   25  A    between atoms: _52  and  _54
REMARK   26  A    between atoms: _54  and  _55
REMARK   27  A    between atoms: _54  and  _57
REMARK   28  A    between atoms: _57  and  _58
REMARK   29  A    between atoms: _63  and  _64
REMARK   30  A    between atoms: _66  and  _68
REMARK   31  A    between atoms: _68  and  _69
REMARK   32  A    between atoms: _71  and  _73
REMARK   33  A    between atoms: _73  and  _74
REMARK   34  A    between atoms: _73  and  _76
REMARK   35  A    between atoms: _79  and  _81
REMARK   36  A    between atoms: _81  and  _82
REMARK   37  A    between atoms: _81  and  _84
REMARK   38  A    between atoms: _87  and  _89
REMARK   39  A    between atoms: _89  and  _90
REMARK   40  A    between atoms: _89  and  _92
REMARK   41  A    between atoms: _92  and  _93
REMARK   42  A    between atoms: _98  and  _99
REMARK   43  A    between atoms: _101  and  _103
REMARK   44  A    between atoms: _103  and  _104
REMARK   45  A    between atoms: _103  and  _106
REMARK   46  A    between atoms: _106  and  _107
REMARK   47  A    between atoms: _107  and  _108
REMARK   48  A    between atoms: _108  and  _109
REMARK   49  A    between atoms: _109  and  _110
REMARK   50  A    between atoms: _114  and  _116
REMARK   51  A    between atoms: _116  and  _117
REMARK   52  A    between atoms: _120  and  _122
REMARK   53  A    between atoms: _122  and  _123
REMARK   54  A    between atoms: _122  and  _125
REMARK   55  A    between atoms: _128  and  _130
REMARK   56  A    between atoms: _130  and  _131
REMARK   57  A    between atoms: _134  and  _136
REMARK   58  A    between atoms: _136  and  _137
REMARK   59  A    between atoms: _136  and  _139
REMARK   60  A    between atoms: _139  and  _140
REMARK   61  A    between atoms: _143  and  _145
REMARK   62  A    between atoms: _145  and  _146
REMARK   63  A    between atoms: _145  and  _148
REMARK   64  A    between atoms: _148  and  _149
REMARK   65  A    between atoms: _149  and  _150
REMARK   66  A    between atoms: _150  and  _151
REMARK   67  A    between atoms: _151  and  _152
REMARK   68  A    between atoms: _156  and  _158
REMARK   69  A    between atoms: _158  and  _159
REMARK   70  A    between atoms: _158  and  _161
REMARK   71  A    between atoms: _161  and  _162
REMARK   72  A    between atoms: _162  and  _163
REMARK   73  A    between atoms: _163  and  _164
REMARK   74  A    between atoms: _164  and  _165
REMARK   75  A    between atoms: _169  and  _171
REMARK   76  A    between atoms: _171  and  _172
REMARK   77  A    between atoms: _171  and  _174
REMARK   78  A    between atoms: _174  and  _175
REMARK   79  A    between atoms: _178  and  _180
REMARK   80  A    between atoms: _180  and  _181
REMARK   81  A    between atoms: _180  and  _183
REMARK   82  A    between atoms: _186  and  _188
REMARK   83  A    between atoms: _188  and  _189
REMARK   84  A    between atoms: _188  and  _191
REMARK   85  A    between atoms: _191  and  _192
REMARK   86  A    between atoms: _192  and  _193
REMARK   87  A    between atoms: _193  and  _194
REMARK   88  A    between atoms: _194  and  _195
REMARK   89  A    between atoms: _199  and  _201
REMARK   90  A    between atoms: _201  and  _202
REMARK   91  A    between atoms: _201  and  _204
REMARK   92  A    between atoms: _204  and  _205
REMARK   93  A    between atoms: _208  and  _210
REMARK   94  A    between atoms: _210  and  _211
REMARK   95  A    between atoms: _210  and  _213
REMARK   96  A    between atoms: _213  and  _214
REMARK   97  A    between atoms: _217  and  _219
REMARK   98  A    between atoms: _219  and  _220
REMARK   99  A    between atoms: _219  and  _222
REMARK  100  A    between atoms: _225  and  _227
REMARK  101  A    between atoms: _227  and  _228
REMARK  102  A    between atoms: _227  and  _230
REMARK  103  A    between atoms: _230  and  _231
REMARK  104  A    between atoms: _237  and  _239
REMARK  105  A    between atoms: _239  and  _240
REMARK  106  A    between atoms: _239  and  _242
REMARK  107  A    between atoms: _242  and  _243
REMARK  108  A    between atoms: _243  and  _244
REMARK  109  A    between atoms: _247  and  _249
REMARK  110  A    between atoms: _249  and  _250
REMARK  111  A    between atoms: _249  and  _252
REMARK  112  A    between atoms: _252  and  _253
REMARK  113  A    between atoms: _259  and  _261
REMARK  114  A    between atoms: _261  and  _262
REMARK  115  A    between atoms: _261  and  _264
REMARK  116  A    between atoms: _264  and  _265
REMARK  117  A    between atoms: _268  and  _270
REMARK  118  A    between atoms: _270  and  _271
REMARK  119  A    between atoms: _270  and  _273
REMARK  120  A    between atoms: _273  and  _274
REMARK  121  A    between atoms: _279  and  _281
REMARK  122  A    between atoms: _281  and  _282
REMARK  123  A    between atoms: _281  and  _284
REMARK  124  A    between atoms: _284  and  _285
REMARK  125  A    between atoms: _285  and  _286
REMARK  126  A    between atoms: _291  and  _293
REMARK  127  A    between atoms: _293  and  _294
REMARK  128  A    between atoms: _293  and  _296
REMARK  129  A    between atoms: _296  and  _297
REMARK  130  A    between atoms: _300  and  _302
REMARK  131  A    between atoms: _302  and  _303
REMARK  132  A    between atoms: _302  and  _305
REMARK  133  A    between atoms: _305  and  _306
REMARK  134  A    between atoms: _309  and  _311
REMARK  135  A    between atoms: _311  and  _312
REMARK  136  A    between atoms: _311  and  _314
REMARK  137  A    between atoms: _314  and  _315
REMARK  138  A    between atoms: _315  and  _316
REMARK  139  A    between atoms: _316  and  _317
REMARK  140  A    between atoms: _317  and  _318
REMARK  141  A    between atoms: _322  and  _324
REMARK  142  A    between atoms: _324  and  _325
REMARK  143  A    between atoms: _324  and  _327
REMARK  144  A    between atoms: _327  and  _328
REMARK  145  A    between atoms: _328  and  _329
REMARK  146  A    between atoms: _329  and  _330
REMARK  147  A    between atoms: _330  and  _331
REMARK  148  A    between atoms: _335  and  _337
REMARK  149  A    between atoms: _337  and  _338
REMARK  150  A    between atoms: _337  and  _340
REMARK  151  A    between atoms: _340  and  _341
REMARK  152  A    between atoms: _346  and  _348
REMARK  153  A    between atoms: _348  and  _349
REMARK  154  A    between atoms: _348  and  _351
REMARK  155  A    between atoms: _351  and  _352
REMARK  156  A    between atoms: _355  and  _357
REMARK  157  A    between atoms: _357  and  _358
REMARK  158  A    between atoms: _357  and  _360
REMARK  159  A    between atoms: _360  and  _361
REMARK  160  A    between atoms: _364  and  _366
REMARK  161  A    between atoms: _366  and  _367
REMARK  162  A    between atoms: _366  and  _369
REMARK  163  A    between atoms: _369  and  _370
REMARK  164  A    between atoms: _370  and  _371
REMARK  165  A    between atoms: _371  and  _372
REMARK  166  A    between atoms: _372  and  _373
REMARK  167  A    between atoms: _378  and  _379
REMARK  168  A    between atoms: _384  and  _386
REMARK  169  A    between atoms: _386  and  _387
REMARK  170  A    between atoms: _386  and  _389
REMARK  171  A    between atoms: _389  and  _390
REMARK  172  A    between atoms: _390  and  _391
REMARK  173  A    between atoms: _396  and  _398
REMARK  174  A    between atoms: _398  and  _399
REMARK  175  A    between atoms: _398  and  _401
REMARK  176  A    between atoms: _401  and  _402
REMARK  177  A    between atoms: _407  and  _409
REMARK  178  A    between atoms: _409  and  _410
REMARK  179  A    between atoms: _409  and  _412
REMARK  180  A    between atoms: _412  and  _413
REMARK  181  A    between atoms: _416  and  _418
REMARK  182  A    between atoms: _418  and  _419
REMARK  183  A    between atoms: _418  and  _421
REMARK  184  A    between atoms: _421  and  _422
REMARK  185  A    between atoms: _425  and  _427
REMARK  186  A    between atoms: _427  and  _428
REMARK  187  A    between atoms: _427  and  _430
REMARK  188  A    between atoms: _430  and  _431
REMARK  189  A    between atoms: _434  and  _436
REMARK  190  A    between atoms: _436  and  _437
REMARK  191  A    between atoms: _436  and  _439
REMARK  192  A    between atoms: _439  and  _440
REMARK  193  A    between atoms: _443  and  _445
REMARK  194  A    between atoms: _445  and  _446
REMARK  195  A    between atoms: _449  and  _451
REMARK  196  A    between atoms: _451  and  _452
REMARK  197  A    between atoms: _451  and  _454
REMARK  198  A    between atoms: _454  and  _455
REMARK  199  A    between atoms: _455  and  _457
REMARK  200  A    between atoms: _457  and  MG_558
REMARK  201  A    between atoms: _458  and  _460
REMARK  202  A    between atoms: _460  and  _461
REMARK  203  A    between atoms: _460  and  _463
REMARK  204  A    between atoms: _463  and  _464
REMARK  205  A    between atoms: _470  and  _472
REMARK  206  A    between atoms: _472  and  _473
REMARK  207  A    between atoms: _472  and  _475
REMARK  208  A    between atoms: _475  and  _476
REMARK  209  A    between atoms: _479  and  _481
REMARK  210  A    between atoms: _481  and  _482
REMARK  211  A    between atoms: _485  and  _487
REMARK  212  A    between atoms: _487  and  _488
REMARK  213  A    between atoms: _487  and  _490
REMARK  214  A    between atoms: _494  and  _495
REMARK  215  A    between atoms: _500  and  _502
REMARK  216  A    between atoms: _502  and  _503
REMARK  217  A    between atoms: _502  and  _505
REMARK  218  A    between atoms: _505  and  _506
REMARK  219  A    between atoms: _509  and  _511
REMARK  220  A    between atoms: _511  and  _512
REMARK  221  A    between atoms: _511  and  _514
REMARK  222  A    between atoms: _514  and  _515
REMARK  223  A    between atoms: _520  and  _521
REMARK  224  A    between atoms: _523  and  _525
REMARK  225  A    between atoms: _525  and  _526
REMARK  226  A    between atoms: _525  and  _528
REMARK  227  A    between atoms: _528  and  _529
REMARK  228  A    between atoms: _529  and  _530
REMARK  229  A    between atoms: _533  and  _535
REMARK  230  A    between atoms: _535  and  _536
REMARK  231  A    between atoms: _535  and  _538
REMARK  232  A    between atoms: _541  and  _543
REMARK  233  A    between atoms: _543  and  _544
REMARK  234  A    between atoms: _543  and  _546
REMARK  235  A    between atoms: _549  and  _551
REMARK  236  A    between atoms: _551  and  _552
REMARK  237  A    between atoms: _551  and  _554
REMARK  238  A    between atoms: _554  and  _555
REMARK                            x       y       z     vdW  Elec       q    Type
REMARK                         _______ _______ _______ _____ _____    ______ ____
ROOT
ATOM      1  O   HOH     1       1.088  36.752   2.086  0.00  0.00    +0.000 OA
ENDROOT
TORSDOF 0
REMARK  Name = ../refined-set-2016/1b38/1b38_pocket.pdb
REMARK  238 active torsions:
REMARK  status: ('A' for Active; 'I' for Inactive)
REMARK    1  A    between atoms: _1  and  _3
REMARK    2  A    between atoms: _3  and  _4
REMARK    3  A    between atoms: _3  and  _6
REMARK    4  A    between atoms: _6  and  _7
REMARK    5  A    between atoms: _7  and  _8
REMARK    6  A    between atoms: _8  and  _9
REMARK    7  A    between atoms: _9  and  _10
REMARK    8  A    between atoms: _14  and  _16
REMARK    9  A    between atoms: _16  and  _17
REMARK   10  A    between atoms: _16  and  _19
REMARK   11  A    between atoms: _19  and  _20
REMARK   12  A    between atoms: _23  and  _25
REMARK   13  A    between atoms: _25  and  _26
REMARK   14  A    between atoms: _28  and  _30
REMARK   15  A    between atoms: _30  and  _31
REMARK   16  A    between atoms: _30  and  _33
REMARK   17  A    between atoms: _33  and  _34
REMARK   18  A    between atoms: _34  and  _35
REMARK   19  A    between atoms: _38  and  _40
REMARK   20  A    between atoms: _40  and  _41
REMARK   21  A    between atoms: _43  and  _45
REMARK   22  A    between atoms: _45  and  _46
REMARK   23  A    between atoms: _45  and  _48
REMARK   24  A    between atoms: _48  and  _49
REMARK   25  A    between atoms: _52  and  _54
REMARK   26  A    between atoms: _54  and  _55
REMARK   27  A    between atoms: _54  and  _57
REMARK   28  A    between atoms: _57  and  _58
REMARK   29  A    between atoms: _63  and  _64
REMARK   30  A    between atoms: _66  and  _68
REMARK   31  A    between atoms: _68  and  _69
REMARK   32  A    between atoms: _71  and  _73
REMARK   33  A    between atoms: _73  and  _74
REMARK   34  A    between atoms: _73  and  _76
REMARK   35  A    between atoms: _79  and  _81
REMARK   36  A    between atoms: _81  and  _82
REMARK   37  A    between atoms: _81  and  _84
REMARK   38  A    between atoms: _87  and  _89
REMARK   39  A    between atoms: _89  and  _90
REMARK   40  A    between atoms: _89  and  _92
REMARK   41  A    between atoms: _92  and  _93
REMARK   42  A    between atoms: _98  and  _99
REMARK   43  A    between atoms: _101  and  _103
REMARK   44  A    between atoms: _103  and  _104
REMARK   45  A    between atoms: _103  and  _106
REMARK   46  A    between atoms: _106  and  _107
REMARK   47  A    between atoms: _107  and  _108
REMARK   48  A    between atoms: _108  and  _109
REMARK   49  A    between atoms: _109  and  _110
REMARK   50  A    between atoms: _114  and  _116
REMARK   51  A    between atoms: _116  and  _117
REMARK   52  A    between atoms: _120  and  _122
REMARK   53  A    between atoms: _122  and  _123
REMARK   54  A    between atoms: _122  and  _125
REMARK   55  A    between atoms: _128  and  _130
REMARK   56  A    between atoms: _130  and  _131
REMARK   57  A    between atoms: _134  and  _136
REMARK   58  A    between atoms: _136  and  _137
REMARK   59  A    between atoms: _136  and  _139
REMARK   60  A    between atoms: _139  and  _140
REMARK   61  A    between atoms: _143  and  _145
REMARK   62  A    between atoms: _145  and  _146
REMARK   63  A    between atoms: _145  and  _148
REMARK   64  A    between atoms: _148  and  _149
REMARK   65  A    between atoms: _149  and  _150
REMARK   66  A    between atoms: _150  and  _151
REMARK   67  A    between atoms: _151  and  _152
REMARK   68  A    between atoms: _156  and  _158
REMARK   69  A    between atoms: _158  and  _159
REMARK   70  A    between atoms: _158  and  _161
REMARK   71  A    between atoms: _161  and  _162
REMARK   72  A    between atoms: _162  and  _163
REMARK   73  A    between atoms: _163  and  _164
REMARK   74  A    between atoms: _164  and  _165
REMARK   75  A    between atoms: _169  and  _171
REMARK   76  A    between atoms: _171  and  _172
REMARK   77  A    between atoms: _171  and  _174
REMARK   78  A    between atoms: _174  and  _175
REMARK   79  A    between atoms: _178  and  _180
REMARK   80  A    between atoms: _180  and  _181
REMARK   81  A    between atoms: _180  and  _183
REMARK   82  A    between atoms: _186  and  _188
REMARK   83  A    between atoms: _188  and  _189
REMARK   84  A    between atoms: _188  and  _191
REMARK   85  A    between atoms: _191  and  _192
REMARK   86  A    between atoms: _192  and  _193
REMARK   87  A    between atoms: _193  and  _194
REMARK   88  A    between atoms: _194  and  _195
REMARK   89  A    between atoms: _199  and  _201
REMARK   90  A    between atoms: _201  and  _202
REMARK   91  A    between atoms: _201  and  _204
REMARK   92  A    between atoms: _204  and  _205
REMARK   93  A    between atoms: _208  and  _210
REMARK   94  A    between atoms: _210  and  _211
REMARK   95  A    between atoms: _210  and  _213
REMARK   96  A    between atoms: _213  and  _214
REMARK   97  A    between atoms: _217  and  _219
REMARK   98  A    between atoms: _219  and  _220
REMARK   99  A    between atoms: _219  and  _222
REMARK  100  A    between atoms: _225  and  _227
REMARK  101  A    between atoms: _227  and  _228
REMARK  102  A    between atoms: _227  and  _230
REMARK  103  A    between atoms: _230  and  _231
REMARK  104  A    between atoms: _237  and  _239
REMARK  105  A    between atoms: _239  and  _240
REMARK  106  A    between atoms: _239  and  _242
REMARK  107  A    between atoms: _242  and  _243
REMARK  108  A    between atoms: _243  and  _244
REMARK  109  A    between atoms: _247  and  _249
REMARK  110  A    between atoms: _249  and  _250
REMARK  111  A    between atoms: _249  and  _252
REMARK  112  A    between atoms: _252  and  _253
REMARK  113  A    between atoms: _259  and  _261
REMARK  114  A    between atoms: _261  and  _262
REMARK  115  A    between atoms: _261  and  _264
REMARK  116  A    between atoms: _264  and  _265
REMARK  117  A    between atoms: _268  and  _270
REMARK  118  A    between atoms: _270  and  _271
REMARK  119  A    between atoms: _270  and  _273
REMARK  120  A    between atoms: _273  and  _274
REMARK  121  A    between atoms: _279  and  _281
REMARK  122  A    between atoms: _281  and  _282
REMARK  123  A    between atoms: _281  and  _284
REMARK  124  A    between atoms: _284  and  _285
REMARK  125  A    between atoms: _285  and  _286
REMARK  126  A    between atoms: _291  and  _293
REMARK  127  A    between atoms: _293  and  _294
REMARK  128  A    between atoms: _293  and  _296
REMARK  129  A    between atoms: _296  and  _297
REMARK  130  A    between atoms: _300  and  _302
REMARK  131  A    between atoms: _302  and  _303
REMARK  132  A    between atoms: _302  and  _305
REMARK  133  A    between atoms: _305  and  _306
REMARK  134  A    between atoms: _309  and  _311
REMARK  135  A    between atoms: _311  and  _312
REMARK  136  A    between atoms: _311  and  _314
REMARK  137  A    between atoms: _314  and  _315
REMARK  138  A    between atoms: _315  and  _316
REMARK  139  A    between atoms: _316  and  _317
REMARK  140  A    between atoms: _317  and  _318
REMARK  141  A    between atoms: _322  and  _324
REMARK  142  A    between atoms: _324  and  _325
REMARK  143  A    between atoms: _324  and  _327
REMARK  144  A    between atoms: _327  and  _328
REMARK  145  A    between atoms: _328  and  _329
REMARK  146  A    between atoms: _329  and  _330
REMARK  147  A    between atoms: _330  and  _331
REMARK  148  A    between atoms: _335  and  _337
REMARK  149  A    between atoms: _337  and  _338
REMARK  150  A    between atoms: _337  and  _340
REMARK  151  A    between atoms: _340  and  _341
REMARK  152  A    between atoms: _346  and  _348
REMARK  153  A    between atoms: _348  and  _349
REMARK  154  A    between atoms: _348  and  _351
REMARK  155  A    between atoms: _351  and  _352
REMARK  156  A    between atoms: _355  and  _357
REMARK  157  A    between atoms: _357  and  _358
REMARK  158  A    between atoms: _357  and  _360
REMARK  159  A    between atoms: _360  and  _361
REMARK  160  A    between atoms: _364  and  _366
REMARK  161  A    between atoms: _366  and  _367
REMARK  162  A    between atoms: _366  and  _369
REMARK  163  A    between atoms: _369  and  _370
REMARK  164  A    between atoms: _370  and  _371
REMARK  165  A    between atoms: _371  and  _372
REMARK  166  A    between atoms: _372  and  _373
REMARK  167  A    between atoms: _378  and  _379
REMARK  168  A    between atoms: _384  and  _386
REMARK  169  A    between atoms: _386  and  _387
REMARK  170  A    between atoms: _386  and  _389
REMARK  171  A    between atoms: _389  and  _390
REMARK  172  A    between atoms: _390  and  _391
REMARK  173  A    between atoms: _396  and  _398
REMARK  174  A    between atoms: _398  and  _399
REMARK  175  A    between atoms: _398  and  _401
REMARK  176  A    between atoms: _401  and  _402
REMARK  177  A    between atoms: _407  and  _409
REMARK  178  A    between atoms: _409  and  _410
REMARK  179  A    between atoms: _409  and  _412
REMARK  180  A    between atoms: _412  and  _413
REMARK  181  A    between atoms: _416  and  _418
REMARK  182  A    between atoms: _418  and  _419
REMARK  183  A    between atoms: _418  and  _421
REMARK  184  A    between atoms: _421  and  _422
REMARK  185  A    between atoms: _425  and  _427
REMARK  186  A    between atoms: _427  and  _428
REMARK  187  A    between atoms: _427  and  _430
REMARK  188  A    between atoms: _430  and  _431
REMARK  189  A    between atoms: _434  and  _436
REMARK  190  A    between atoms: _436  and  _437
REMARK  191  A    between atoms: _436  and  _439
REMARK  192  A    between atoms: _439  and  _440
REMARK  193  A    between atoms: _443  and  _445
REMARK  194  A    between atoms: _445  and  _446
REMARK  195  A    between atoms: _449  and  _451
REMARK  196  A    between atoms: _451  and  _452
REMARK  197  A    between atoms: _451  and  _454
REMARK  198  A    between atoms: _454  and  _455
REMARK  199  A    between atoms: _455  and  _457
REMARK  200  A    between atoms: _457  and  MG_558
REMARK  201  A    between atoms: _458  and  _460
REMARK  202  A    between atoms: _460  and  _461
REMARK  203  A    between atoms: _460  and  _463
REMARK  204  A    between atoms: _463  and  _464
REMARK  205  A    between atoms: _470  and  _472
REMARK  206  A    between atoms: _472  and  _473
REMARK  207  A    between atoms: _472  and  _475
REMARK  208  A    between atoms: _475  and  _476
REMARK  209  A    between atoms: _479  and  _481
REMARK  210  A    between atoms: _481  and  _482
REMARK  211  A    between atoms: _485  and  _487
REMARK  212  A    between atoms: _487  and  _488
REMARK  213  A    between atoms: _487  and  _490
REMARK  214  A    between atoms: _494  and  _495
REMARK  215  A    between atoms: _500  and  _502
REMARK  216  A    between atoms: _502  and  _503
REMARK  217  A    between atoms: _502  and  _505
REMARK  218  A    between atoms: _505  and  _506
REMARK  219  A    between atoms: _509  and  _511
REMARK  220  A    between atoms: _511  and  _512
REMARK  221  A    between atoms: _511  and  _514
REMARK  222  A    between atoms: _514  and  _515
REMARK  223  A    between atoms: _520  and  _521
REMARK  224  A    between atoms: _523  and  _525
REMARK  225  A    between atoms: _525  and  _526
REMARK  226  A    between atoms: _525  and  _528
REMARK  227  A    between atoms: _528  and  _529
REMARK  228  A    between atoms: _529  and  _530
REMARK  229  A    between atoms: _533  and  _535
REMARK  230  A    between atoms: _535  and  _536
REMARK  231  A    between atoms: _535  and  _538
REMARK  232  A    between atoms: _541  and  _543
REMARK  233  A    between atoms: _543  and  _544
REMARK  234  A    between atoms: _543  and  _546
REMARK  235  A    between atoms: _549  and  _551
REMARK  236  A    between atoms: _551  and  _552
REMARK  237  A    between atoms: _551  and  _554
REMARK  238  A    between atoms: _554  and  _555
REMARK                            x       y       z     vdW  Elec       q    Type
REMARK                         _______ _______ _______ _____ _____    ______ ____
ROOT
ATOM      1  O   HOH     1      -1.073  26.009  23.814  0.00  0.00    +0.000 OA
ENDROOT
TORSDOF 0
REMARK  Name = ../refined-set-2016/1b38/1b38_pocket.pdb
REMARK  238 active torsions:
REMARK  status: ('A' for Active; 'I' for Inactive)
REMARK    1  A    between atoms: _1  and  _3
REMARK    2  A    between atoms: _3  and  _4
REMARK    3  A    between atoms: _3  and  _6
REMARK    4  A    between atoms: _6  and  _7
REMARK    5  A    between atoms: _7  and  _8
REMARK    6  A    between atoms: _8  and  _9
REMARK    7  A    between atoms: _9  and  _10
REMARK    8  A    between atoms: _14  and  _16
REMARK    9  A    between atoms: _16  and  _17
REMARK   10  A    between atoms: _16  and  _19
REMARK   11  A    between atoms: _19  and  _20
REMARK   12  A    between atoms: _23  and  _25
REMARK   13  A    between atoms: _25  and  _26
REMARK   14  A    between atoms: _28  and  _30
REMARK   15  A    between atoms: _30  and  _31
REMARK   16  A    between atoms: _30  and  _33
REMARK   17  A    between atoms: _33  and  _34
REMARK   18  A    between atoms: _34  and  _35
REMARK   19  A    between atoms: _38  and  _40
REMARK   20  A    between atoms: _40  and  _41
REMARK   21  A    between atoms: _43  and  _45
REMARK   22  A    between atoms: _45  and  _46
REMARK   23  A    between atoms: _45  and  _48
REMARK   24  A    between atoms: _48  and  _49
REMARK   25  A    between atoms: _52  and  _54
REMARK   26  A    between atoms: _54  and  _55
REMARK   27  A    between atoms: _54  and  _57
REMARK   28  A    between atoms: _57  and  _58
REMARK   29  A    between atoms: _63  and  _64
REMARK   30  A    between atoms: _66  and  _68
REMARK   31  A    between atoms: _68  and  _69
REMARK   32  A    between atoms: _71  and  _73
REMARK   33  A    between atoms: _73  and  _74
REMARK   34  A    between atoms: _73  and  _76
REMARK   35  A    between atoms: _79  and  _81
REMARK   36  A    between atoms: _81  and  _82
REMARK   37  A    between atoms: _81  and  _84
REMARK   38  A    between atoms: _87  and  _89
REMARK   39  A    between atoms: _89  and  _90
REMARK   40  A    between atoms: _89  and  _92
REMARK   41  A    between atoms: _92  and  _93
REMARK   42  A    between atoms: _98  and  _99
REMARK   43  A    between atoms: _101  and  _103
REMARK   44  A    between atoms: _103  and  _104
REMARK   45  A    between atoms: _103  and  _106
REMARK   46  A    between atoms: _106  and  _107
REMARK   47  A    between atoms: _107  and  _108
REMARK   48  A    between atoms: _108  and  _109
REMARK   49  A    between atoms: _109  and  _110
REMARK   50  A    between atoms: _114  and  _116
REMARK   51  A    between atoms: _116  and  _117
REMARK   52  A    between atoms: _120  and  _122
REMARK   53  A    between atoms: _122  and  _123
REMARK   54  A    between atoms: _122  and  _125
REMARK   55  A    between atoms: _128  and  _130
REMARK   56  A    between atoms: _130  and  _131
REMARK   57  A    between atoms: _134  and  _136
REMARK   58  A    between atoms: _136  and  _137
REMARK   59  A    between atoms: _136  and  _139
REMARK   60  A    between atoms: _139  and  _140
REMARK   61  A    between atoms: _143  and  _145
REMARK   62  A    between atoms: _145  and  _146
REMARK   63  A    between atoms: _145  and  _148
REMARK   64  A    between atoms: _148  and  _149
REMARK   65  A    between atoms: _149  and  _150
REMARK   66  A    between atoms: _150  and  _151
REMARK   67  A    between atoms: _151  and  _152
REMARK   68  A    between atoms: _156  and  _158
REMARK   69  A    between atoms: _158  and  _159
REMARK   70  A    between atoms: _158  and  _161
REMARK   71  A    between atoms: _161  and  _162
REMARK   72  A    between atoms: _162  and  _163
REMARK   73  A    between atoms: _163  and  _164
REMARK   74  A    between atoms: _164  and  _165
REMARK   75  A    between atoms: _169  and  _171
REMARK   76  A    between atoms: _171  and  _172
REMARK   77  A    between atoms: _171  and  _174
REMARK   78  A    between atoms: _174  and  _175
REMARK   79  A    between atoms: _178  and  _180
REMARK   80  A    between atoms: _180  and  _181
REMARK   81  A    between atoms: _180  and  _183
REMARK   82  A    between atoms: _186  and  _188
REMARK   83  A    between atoms: _188  and  _189
REMARK   84  A    between atoms: _188  and  _191
REMARK   85  A    between atoms: _191  and  _192
REMARK   86  A    between atoms: _192  and  _193
REMARK   87  A    between atoms: _193  and  _194
REMARK   88  A    between atoms: _194  and  _195
REMARK   89  A    between atoms: _199  and  _201
REMARK   90  A    between atoms: _201  and  _202
REMARK   91  A    between atoms: _201  and  _204
REMARK   92  A    between atoms: _204  and  _205
REMARK   93  A    between atoms: _208  and  _210
REMARK   94  A    between atoms: _210  and  _211
REMARK   95  A    between atoms: _210  and  _213
REMARK   96  A    between atoms: _213  and  _214
REMARK   97  A    between atoms: _217  and  _219
REMARK   98  A    between atoms: _219  and  _220
REMARK   99  A    between atoms: _219  and  _222
REMARK  100  A    between atoms: _225  and  _227
REMARK  101  A    between atoms: _227  and  _228
REMARK  102  A    between atoms: _227  and  _230
REMARK  103  A    between atoms: _230  and  _231
REMARK  104  A    between atoms: _237  and  _239
REMARK  105  A    between atoms: _239  and  _240
REMARK  106  A    between atoms: _239  and  _242
REMARK  107  A    between atoms: _242  and  _243
REMARK  108  A    between atoms: _243  and  _244
REMARK  109  A    between atoms: _247  and  _249
REMARK  110  A    between atoms: _249  and  _250
REMARK  111  A    between atoms: _249  and  _252
REMARK  112  A    between atoms: _252  and  _253
REMARK  113  A    between atoms: _259  and  _261
REMARK  114  A    between atoms: _261  and  _262
REMARK  115  A    between atoms: _261  and  _264
REMARK  116  A    between atoms: _264  and  _265
REMARK  117  A    between atoms: _268  and  _270
REMARK  118  A    between atoms: _270  and  _271
REMARK  119  A    between atoms: _270  and  _273
REMARK  120  A    between atoms: _273  and  _274
REMARK  121  A    between atoms: _279  and  _281
REMARK  122  A    between atoms: _281  and  _282
REMARK  123  A    between atoms: _281  and  _284
REMARK  124  A    between atoms: _284  and  _285
REMARK  125  A    between atoms: _285  and  _286
REMARK  126  A    between atoms: _291  and  _293
REMARK  127  A    between atoms: _293  and  _294
REMARK  128  A    between atoms: _293  and  _296
REMARK  129  A    between atoms: _296  and  _297
REMARK  130  A    between atoms: _300  and  _302
REMARK  131  A    between atoms: _302  and  _303
REMARK  132  A    between atoms: _302  and  _305
REMARK  133  A    between atoms: _305  and  _306
REMARK  134  A    between atoms: _309  and  _311
REMARK  135  A    between atoms: _311  and  _312
REMARK  136  A    between atoms: _311  and  _314
REMARK  137  A    between atoms: _314  and  _315
REMARK  138  A    between atoms: _315  and  _316
REMARK  139  A    between atoms: _316  and  _317
REMARK  140  A    between atoms: _317  and  _318
REMARK  141  A    between atoms: _322  and  _324
REMARK  142  A    between atoms: _324  and  _325
REMARK  143  A    between atoms: _324  and  _327
REMARK  144  A    between atoms: _327  and  _328
REMARK  145  A    between atoms: _328  and  _329
REMARK  146  A    between atoms: _329  and  _330
REMARK  147  A    between atoms: _330  and  _331
REMARK  148  A    between atoms: _335  and  _337
REMARK  149  A    between atoms: _337  and  _338
REMARK  150  A    between atoms: _337  and  _340
REMARK  151  A    between atoms: _340  and  _341
REMARK  152  A    between atoms: _346  and  _348
REMARK  153  A    between atoms: _348  and  _349
REMARK  154  A    between atoms: _348  and  _351
REMARK  155  A    between atoms: _351  and  _352
REMARK  156  A    between atoms: _355  and  _357
REMARK  157  A    between atoms: _357  and  _358
REMARK  158  A    between atoms: _357  and  _360
REMARK  159  A    between atoms: _360  and  _361
REMARK  160  A    between atoms: _364  and  _366
REMARK  161  A    between atoms: _366  and  _367
REMARK  162  A    between atoms: _366  and  _369
REMARK  163  A    between atoms: _369  and  _370
REMARK  164  A    between atoms: _370  and  _371
REMARK  165  A    between atoms: _371  and  _372
REMARK  166  A    between atoms: _372  and  _373
REMARK  167  A    between atoms: _378  and  _379
REMARK  168  A    between atoms: _384  and  _386
REMARK  169  A    between atoms: _386  and  _387
REMARK  170  A    between atoms: _386  and  _389
REMARK  171  A    between atoms: _389  and  _390
REMARK  172  A    between atoms: _390  and  _391
REMARK  173  A    between atoms: _396  and  _398
REMARK  174  A    between atoms: _398  and  _399
REMARK  175  A    between atoms: _398  and  _401
REMARK  176  A    between atoms: _401  and  _402
REMARK  177  A    between atoms: _407  and  _409
REMARK  178  A    between atoms: _409  and  _410
REMARK  179  A    between atoms: _409  and  _412
REMARK  180  A    between atoms: _412  and  _413
REMARK  181  A    between atoms: _416  and  _418
REMARK  182  A    between atoms: _418  and  _419
REMARK  183  A    between atoms: _418  and  _421
REMARK  184  A    between atoms: _421  and  _422
REMARK  185  A    between atoms: _425  and  _427
REMARK  186  A    between atoms: _427  and  _428
REMARK  187  A    between atoms: _427  and  _430
REMARK  188  A    between atoms: _430  and  _431
REMARK  189  A    between atoms: _434  and  _436
REMARK  190  A    between atoms: _436  and  _437
REMARK  191  A    between atoms: _436  and  _439
REMARK  192  A    between atoms: _439  and  _440
REMARK  193  A    between atoms: _443  and  _445
REMARK  194  A    between atoms: _445  and  _446
REMARK  195  A    between atoms: _449  and  _451
REMARK  196  A    between atoms: _451  and  _452
REMARK  197  A    between atoms: _451  and  _454
REMARK  198  A    between atoms: _454  and  _455
REMARK  199  A    between atoms: _455  and  _457
REMARK  200  A    between atoms: _457  and  MG_558
REMARK  201  A    between atoms: _458  and  _460
REMARK  202  A    between atoms: _460  and  _461
REMARK  203  A    between atoms: _460  and  _463
REMARK  204  A    between atoms: _463  and  _464
REMARK  205  A    between atoms: _470  and  _472
REMARK  206  A    between atoms: _472  and  _473
REMARK  207  A    between atoms: _472  and  _475
REMARK  208  A    between atoms: _475  and  _476
REMARK  209  A    between atoms: _479  and  _481
REMARK  210  A    between atoms: _481  and  _482
REMARK  211  A    between atoms: _485  and  _487
REMARK  212  A    between atoms: _487  and  _488
REMARK  213  A    between atoms: _487  and  _490
REMARK  214  A    between atoms: _494  and  _495
REMARK  215  A    between atoms: _500  and  _502
REMARK  216  A    between atoms: _502  and  _503
REMARK  217  A    between atoms: _502  and  _505
REMARK  218  A    between atoms: _505  and  _506
REMARK  219  A    between atoms: _509  and  _511
REMARK  220  A    between atoms: _511  and  _512
REMARK  221  A    between atoms: _511  and  _514
REMARK  222  A    between atoms: _514  and  _515
REMARK  223  A    between atoms: _520  and  _521
REMARK  224  A    between atoms: _523  and  _525
REMARK  225  A    between atoms: _525  and  _526
REMARK  226  A    between atoms: _525  and  _528
REMARK  227  A    between atoms: _528  and  _529
REMARK  228  A    between atoms: _529  and  _530
REMARK  229  A    between atoms: _533  and  _535
REMARK  230  A    between atoms: _535  and  _536
REMARK  231  A    between atoms: _535  and  _538
REMARK  232  A    between atoms: _541  and  _543
REMARK  233  A    between atoms: _543  and  _544
REMARK  234  A    between atoms: _543  and  _546
REMARK  235  A    between atoms: _549  and  _551
REMARK  236  A    between atoms: _551  and  _552
REMARK  237  A    between atoms: _551  and  _554
REMARK  238  A    between atoms: _554  and  _555
REMARK                            x       y       z     vdW  Elec       q    Type
REMARK                         _______ _______ _______ _____ _____    ______ ____
ROOT
ATOM      1  O   HOH     1      -2.672  33.018  11.236  0.00  0.00    +0.000 OA
ENDROOT
TORSDOF 0
REMARK  Name = ../refined-set-2016/1b38/1b38_pocket.pdb
REMARK  238 active torsions:
REMARK  status: ('A' for Active; 'I' for Inactive)
REMARK    1  A    between atoms: _1  and  _3
REMARK    2  A    between atoms: _3  and  _4
REMARK    3  A    between atoms: _3  and  _6
REMARK    4  A    between atoms: _6  and  _7
REMARK    5  A    between atoms: _7  and  _8
REMARK    6  A    between atoms: _8  and  _9
REMARK    7  A    between atoms: _9  and  _10
REMARK    8  A    between atoms: _14  and  _16
REMARK    9  A    between atoms: _16  and  _17
REMARK   10  A    between atoms: _16  and  _19
REMARK   11  A    between atoms: _19  and  _20
REMARK   12  A    between atoms: _23  and  _25
REMARK   13  A    between atoms: _25  and  _26
REMARK   14  A    between atoms: _28  and  _30
REMARK   15  A    between atoms: _30  and  _31
REMARK   16  A    between atoms: _30  and  _33
REMARK   17  A    between atoms: _33  and  _34
REMARK   18  A    between atoms: _34  and  _35
REMARK   19  A    between atoms: _38  and  _40
REMARK   20  A    between atoms: _40  and  _41
REMARK   21  A    between atoms: _43  and  _45
REMARK   22  A    between atoms: _45  and  _46
REMARK   23  A    between atoms: _45  and  _48
REMARK   24  A    between atoms: _48  and  _49
REMARK   25  A    between atoms: _52  and  _54
REMARK   26  A    between atoms: _54  and  _55
REMARK   27  A    between atoms: _54  and  _57
REMARK   28  A    between atoms: _57  and  _58
REMARK   29  A    between atoms: _63  and  _64
REMARK   30  A    between atoms: _66  and  _68
REMARK   31  A    between atoms: _68  and  _69
REMARK   32  A    between atoms: _71  and  _73
REMARK   33  A    between atoms: _73  and  _74
REMARK   34  A    between atoms: _73  and  _76
REMARK   35  A    between atoms: _79  and  _81
REMARK   36  A    between atoms: _81  and  _82
REMARK   37  A    between atoms: _81  and  _84
REMARK   38  A    between atoms: _87  and  _89
REMARK   39  A    between atoms: _89  and  _90
REMARK   40  A    between atoms: _89  and  _92
REMARK   41  A    between atoms: _92  and  _93
REMARK   42  A    between atoms: _98  and  _99
REMARK   43  A    between atoms: _101  and  _103
REMARK   44  A    between atoms: _103  and  _104
REMARK   45  A    between atoms: _103  and  _106
REMARK   46  A    between atoms: _106  and  _107
REMARK   47  A    between atoms: _107  and  _108
REMARK   48  A    between atoms: _108  and  _109
REMARK   49  A    between atoms: _109  and  _110
REMARK   50  A    between atoms: _114  and  _116
REMARK   51  A    between atoms: _116  and  _117
REMARK   52  A    between atoms: _120  and  _122
REMARK   53  A    between atoms: _122  and  _123
REMARK   54  A    between atoms: _122  and  _125
REMARK   55  A    between atoms: _128  and  _130
REMARK   56  A    between atoms: _130  and  _131
REMARK   57  A    between atoms: _134  and  _136
REMARK   58  A    between atoms: _136  and  _137
REMARK   59  A    between atoms: _136  and  _139
REMARK   60  A    between atoms: _139  and  _140
REMARK   61  A    between atoms: _143  and  _145
REMARK   62  A    between atoms: _145  and  _146
REMARK   63  A    between atoms: _145  and  _148
REMARK   64  A    between atoms: _148  and  _149
REMARK   65  A    between atoms: _149  and  _150
REMARK   66  A    between atoms: _150  and  _151
REMARK   67  A    between atoms: _151  and  _152
REMARK   68  A    between atoms: _156  and  _158
REMARK   69  A    between atoms: _158  and  _159
REMARK   70  A    between atoms: _158  and  _161
REMARK   71  A    between atoms: _161  and  _162
REMARK   72  A    between atoms: _162  and  _163
REMARK   73  A    between atoms: _163  and  _164
REMARK   74  A    between atoms: _164  and  _165
REMARK   75  A    between atoms: _169  and  _171
REMARK   76  A    between atoms: _171  and  _172
REMARK   77  A    between atoms: _171  and  _174
REMARK   78  A    between atoms: _174  and  _175
REMARK   79  A    between atoms: _178  and  _180
REMARK   80  A    between atoms: _180  and  _181
REMARK   81  A    between atoms: _180  and  _183
REMARK   82  A    between atoms: _186  and  _188
REMARK   83  A    between atoms: _188  and  _189
REMARK   84  A    between atoms: _188  and  _191
REMARK   85  A    between atoms: _191  and  _192
REMARK   86  A    between atoms: _192  and  _193
REMARK   87  A    between atoms: _193  and  _194
REMARK   88  A    between atoms: _194  and  _195
REMARK   89  A    between atoms: _199  and  _201
REMARK   90  A    between atoms: _201  and  _202
REMARK   91  A    between atoms: _201  and  _204
REMARK   92  A    between atoms: _204  and  _205
REMARK   93  A    between atoms: _208  and  _210
REMARK   94  A    between atoms: _210  and  _211
REMARK   95  A    between atoms: _210  and  _213
REMARK   96  A    between atoms: _213  and  _214
REMARK   97  A    between atoms: _217  and  _219
REMARK   98  A    between atoms: _219  and  _220
REMARK   99  A    between atoms: _219  and  _222
REMARK  100  A    between atoms: _225  and  _227
REMARK  101  A    between atoms: _227  and  _228
REMARK  102  A    between atoms: _227  and  _230
REMARK  103  A    between atoms: _230  and  _231
REMARK  104  A    between atoms: _237  and  _239
REMARK  105  A    between atoms: _239  and  _240
REMARK  106  A    between atoms: _239  and  _242
REMARK  107  A    between atoms: _242  and  _243
REMARK  108  A    between atoms: _243  and  _244
REMARK  109  A    between atoms: _247  and  _249
REMARK  110  A    between atoms: _249  and  _250
REMARK  111  A    between atoms: _249  and  _252
REMARK  112  A    between atoms: _252  and  _253
REMARK  113  A    between atoms: _259  and  _261
REMARK  114  A    between atoms: _261  and  _262
REMARK  115  A    between atoms: _261  and  _264
REMARK  116  A    between atoms: _264  and  _265
REMARK  117  A    between atoms: _268  and  _270
REMARK  118  A    between atoms: _270  and  _271
REMARK  119  A    between atoms: _270  and  _273
REMARK  120  A    between atoms: _273  and  _274
REMARK  121  A    between atoms: _279  and  _281
REMARK  122  A    between atoms: _281  and  _282
REMARK  123  A    between atoms: _281  and  _284
REMARK  124  A    between atoms: _284  and  _285
REMARK  125  A    between atoms: _285  and  _286
REMARK  126  A    between atoms: _291  and  _293
REMARK  127  A    between atoms: _293  and  _294
REMARK  128  A    between atoms: _293  and  _296
REMARK  129  A    between atoms: _296  and  _297
REMARK  130  A    between atoms: _300  and  _302
REMARK  131  A    between atoms: _302  and  _303
REMARK  132  A    between atoms: _302  and  _305
REMARK  133  A    between atoms: _305  and  _306
REMARK  134  A    between atoms: _309  and  _311
REMARK  135  A    between atoms: _311  and  _312
REMARK  136  A    between atoms: _311  and  _314
REMARK  137  A    between atoms: _314  and  _315
REMARK  138  A    between atoms: _315  and  _316
REMARK  139  A    between atoms: _316  and  _317
REMARK  140  A    between atoms: _317  and  _318
REMARK  141  A    between atoms: _322  and  _324
REMARK  142  A    between atoms: _324  and  _325
REMARK  143  A    between atoms: _324  and  _327
REMARK  144  A    between atoms: _327  and  _328
REMARK  145  A    between atoms: _328  and  _329
REMARK  146  A    between atoms: _329  and  _330
REMARK  147  A    between atoms: _330  and  _331
REMARK  148  A    between atoms: _335  and  _337
REMARK  149  A    between atoms: _337  and  _338
REMARK  150  A    between atoms: _337  and  _340
REMARK  151  A    between atoms: _340  and  _341
REMARK  152  A    between atoms: _346  and  _348
REMARK  153  A    between atoms: _348  and  _349
REMARK  154  A    between atoms: _348  and  _351
REMARK  155  A    between atoms: _351  and  _352
REMARK  156  A    between atoms: _355  and  _357
REMARK  157  A    between atoms: _357  and  _358
REMARK  158  A    between atoms: _357  and  _360
REMARK  159  A    between atoms: _360  and  _361
REMARK  160  A    between atoms: _364  and  _366
REMARK  161  A    between atoms: _366  and  _367
REMARK  162  A    between atoms: _366  and  _369
REMARK  163  A    between atoms: _369  and  _370
REMARK  164  A    between atoms: _370  and  _371
REMARK  165  A    between atoms: _371  and  _372
REMARK  166  A    between atoms: _372  and  _373
REMARK  167  A    between atoms: _378  and  _379
REMARK  168  A    between atoms: _384  and  _386
REMARK  169  A    between atoms: _386  and  _387
REMARK  170  A    between atoms: _386  and  _389
REMARK  171  A    between atoms: _389  and  _390
REMARK  172  A    between atoms: _390  and  _391
REMARK  173  A    between atoms: _396  and  _398
REMARK  174  A    between atoms: _398  and  _399
REMARK  175  A    between atoms: _398  and  _401
REMARK  176  A    between atoms: _401  and  _402
REMARK  177  A    between atoms: _407  and  _409
REMARK  178  A    between atoms: _409  and  _410
REMARK  179  A    between atoms: _409  and  _412
REMARK  180  A    between atoms: _412  and  _413
REMARK  181  A    between atoms: _416  and  _418
REMARK  182  A    between atoms: _418  and  _419
REMARK  183  A    between atoms: _418  and  _421
REMARK  184  A    between atoms: _421  and  _422
REMARK  185  A    between atoms: _425  and  _427
REMARK  186  A    between atoms: _427  and  _428
REMARK  187  A    between atoms: _427  and  _430
REMARK  188  A    between atoms: _430  and  _431
REMARK  189  A    between atoms: _434  and  _436
REMARK  190  A    between atoms: _436  and  _437
REMARK  191  A    between atoms: _436  and  _439
REMARK  192  A    between atoms: _439  and  _440
REMARK  193  A    between atoms: _443  and  _445
REMARK  194  A    between atoms: _445  and  _446
REMARK  195  A    between atoms: _449  and  _451
REMARK  196  A    between atoms: _451  and  _452
REMARK  197  A    between atoms: _451  and  _454
REMARK  198  A    between atoms: _454  and  _455
REMARK  199  A    between atoms: _455  and  _457
REMARK  200  A    between atoms: _457  and  MG_558
REMARK  201  A    between atoms: _458  and  _460
REMARK  202  A    between atoms: _460  and  _461
REMARK  203  A    between atoms: _460  and  _463
REMARK  204  A    between atoms: _463  and  _464
REMARK  205  A    between atoms: _470  and  _472
REMARK  206  A    between atoms: _472  and  _473
REMARK  207  A    between atoms: _472  and  _475
REMARK  208  A    between atoms: _475  and  _476
REMARK  209  A    between atoms: _479  and  _481
REMARK  210  A    between atoms: _481  and  _482
REMARK  211  A    between atoms: _485  and  _487
REMARK  212  A    between atoms: _487  and  _488
REMARK  213  A    between atoms: _487  and  _490
REMARK  214  A    between atoms: _494  and  _495
REMARK  215  A    between atoms: _500  and  _502
REMARK  216  A    between atoms: _502  and  _503
REMARK  217  A    between atoms: _502  and  _505
REMARK  218  A    between atoms: _505  and  _506
REMARK  219  A    between atoms: _509  and  _511
REMARK  220  A    between atoms: _511  and  _512
REMARK  221  A    between atoms: _511  and  _514
REMARK  222  A    between atoms: _514  and  _515
REMARK  223  A    between atoms: _520  and  _521
REMARK  224  A    between atoms: _523  and  _525
REMARK  225  A    between atoms: _525  and  _526
REMARK  226  A    between atoms: _525  and  _528
REMARK  227  A    between atoms: _528  and  _529
REMARK  228  A    between atoms: _529  and  _530
REMARK  229  A    between atoms: _533  and  _535
REMARK  230  A    between atoms: _535  and  _536
REMARK  231  A    between atoms: _535  and  _538
REMARK  232  A    between atoms: _541  and  _543
REMARK  233  A    between atoms: _543  and  _544
REMARK  234  A    between atoms: _543  and  _546
REMARK  235  A    between atoms: _549  and  _551
REMARK  236  A    between atoms: _551  and  _552
REMARK  237  A    between atoms: _551  and  _554
REMARK  238  A    between atoms: _554  and  _555
REMARK                            x       y       z     vdW  Elec       q    Type
REMARK                         _______ _______ _______ _____ _____    ______ ____
ROOT
ATOM      1  O   HOH     1      -6.614  24.690  12.152  0.00  0.00    +0.000 OA
ENDROOT
TORSDOF 0
REMARK  Name = ../refined-set-2016/1b38/1b38_pocket.pdb
REMARK  238 active torsions:
REMARK  status: ('A' for Active; 'I' for Inactive)
REMARK    1  A    between atoms: _1  and  _3
REMARK    2  A    between atoms: _3  and  _4
REMARK    3  A    between atoms: _3  and  _6
REMARK    4  A    between atoms: _6  and  _7
REMARK    5  A    between atoms: _7  and  _8
REMARK    6  A    between atoms: _8  and  _9
REMARK    7  A    between atoms: _9  and  _10
REMARK    8  A    between atoms: _14  and  _16
REMARK    9  A    between atoms: _16  and  _17
REMARK   10  A    between atoms: _16  and  _19
REMARK   11  A    between atoms: _19  and  _20
REMARK   12  A    between atoms: _23  and  _25
REMARK   13  A    between atoms: _25  and  _26
REMARK   14  A    between atoms: _28  and  _30
REMARK   15  A    between atoms: _30  and  _31
REMARK   16  A    between atoms: _30  and  _33
REMARK   17  A    between atoms: _33  and  _34
REMARK   18  A    between atoms: _34  and  _35
REMARK   19  A    between atoms: _38  and  _40
REMARK   20  A    between atoms: _40  and  _41
REMARK   21  A    between atoms: _43  and  _45
REMARK   22  A    between atoms: _45  and  _46
REMARK   23  A    between atoms: _45  and  _48
REMARK   24  A    between atoms: _48  and  _49
REMARK   25  A    between atoms: _52  and  _54
REMARK   26  A    between atoms: _54  and  _55
REMARK   27  A    between atoms: _54  and  _57
REMARK   28  A    between atoms: _57  and  _58
REMARK   29  A    between atoms: _63  and  _64
REMARK   30  A    between atoms: _66  and  _68
REMARK   31  A    between atoms: _68  and  _69
REMARK   32  A    between atoms: _71  and  _73
REMARK   33  A    between atoms: _73  and  _74
REMARK   34  A    between atoms: _73  and  _76
REMARK   35  A    between atoms: _79  and  _81
REMARK   36  A    between atoms: _81  and  _82
REMARK   37  A    between atoms: _81  and  _84
REMARK   38  A    between atoms: _87  and  _89
REMARK   39  A    between atoms: _89  and  _90
REMARK   40  A    between atoms: _89  and  _92
REMARK   41  A    between atoms: _92  and  _93
REMARK   42  A    between atoms: _98  and  _99
REMARK   43  A    between atoms: _101  and  _103
REMARK   44  A    between atoms: _103  and  _104
REMARK   45  A    between atoms: _103  and  _106
REMARK   46  A    between atoms: _106  and  _107
REMARK   47  A    between atoms: _107  and  _108
REMARK   48  A    between atoms: _108  and  _109
REMARK   49  A    between atoms: _109  and  _110
REMARK   50  A    between atoms: _114  and  _116
REMARK   51  A    between atoms: _116  and  _117
REMARK   52  A    between atoms: _120  and  _122
REMARK   53  A    between atoms: _122  and  _123
REMARK   54  A    between atoms: _122  and  _125
REMARK   55  A    between atoms: _128  and  _130
REMARK   56  A    between atoms: _130  and  _131
REMARK   57  A    between atoms: _134  and  _136
REMARK   58  A    between atoms: _136  and  _137
REMARK   59  A    between atoms: _136  and  _139
REMARK   60  A    between atoms: _139  and  _140
REMARK   61  A    between atoms: _143  and  _145
REMARK   62  A    between atoms: _145  and  _146
REMARK   63  A    between atoms: _145  and  _148
REMARK   64  A    between atoms: _148  and  _149
REMARK   65  A    between atoms: _149  and  _150
REMARK   66  A    between atoms: _150  and  _151
REMARK   67  A    between atoms: _151  and  _152
REMARK   68  A    between atoms: _156  and  _158
REMARK   69  A    between atoms: _158  and  _159
REMARK   70  A    between atoms: _158  and  _161
REMARK   71  A    between atoms: _161  and  _162
REMARK   72  A    between atoms: _162  and  _163
REMARK   73  A    between atoms: _163  and  _164
REMARK   74  A    between atoms: _164  and  _165
REMARK   75  A    between atoms: _169  and  _171
REMARK   76  A    between atoms: _171  and  _172
REMARK   77  A    between atoms: _171  and  _174
REMARK   78  A    between atoms: _174  and  _175
REMARK   79  A    between atoms: _178  and  _180
REMARK   80  A    between atoms: _180  and  _181
REMARK   81  A    between atoms: _180  and  _183
REMARK   82  A    between atoms: _186  and  _188
REMARK   83  A    between atoms: _188  and  _189
REMARK   84  A    between atoms: _188  and  _191
REMARK   85  A    between atoms: _191  and  _192
REMARK   86  A    between atoms: _192  and  _193
REMARK   87  A    between atoms: _193  and  _194
REMARK   88  A    between atoms: _194  and  _195
REMARK   89  A    between atoms: _199  and  _201
REMARK   90  A    between atoms: _201  and  _202
REMARK   91  A    between atoms: _201  and  _204
REMARK   92  A    between atoms: _204  and  _205
REMARK   93  A    between atoms: _208  and  _210
REMARK   94  A    between atoms: _210  and  _211
REMARK   95  A    between atoms: _210  and  _213
REMARK   96  A    between atoms: _213  and  _214
REMARK   97  A    between atoms: _217  and  _219
REMARK   98  A    between atoms: _219  and  _220
REMARK   99  A    between atoms: _219  and  _222
REMARK  100  A    between atoms: _225  and  _227
REMARK  101  A    between atoms: _227  and  _228
REMARK  102  A    between atoms: _227  and  _230
REMARK  103  A    between atoms: _230  and  _231
REMARK  104  A    between atoms: _237  and  _239
REMARK  105  A    between atoms: _239  and  _240
REMARK  106  A    between atoms: _239  and  _242
REMARK  107  A    between atoms: _242  and  _243
REMARK  108  A    between atoms: _243  and  _244
REMARK  109  A    between atoms: _247  and  _249
REMARK  110  A    between atoms: _249  and  _250
REMARK  111  A    between atoms: _249  and  _252
REMARK  112  A    between atoms: _252  and  _253
REMARK  113  A    between atoms: _259  and  _261
REMARK  114  A    between atoms: _261  and  _262
REMARK  115  A    between atoms: _261  and  _264
REMARK  116  A    between atoms: _264  and  _265
REMARK  117  A    between atoms: _268  and  _270
REMARK  118  A    between atoms: _270  and  _271
REMARK  119  A    between atoms: _270  and  _273
REMARK  120  A    between atoms: _273  and  _274
REMARK  121  A    between atoms: _279  and  _281
REMARK  122  A    between atoms: _281  and  _282
REMARK  123  A    between atoms: _281  and  _284
REMARK  124  A    between atoms: _284  and  _285
REMARK  125  A    between atoms: _285  and  _286
REMARK  126  A    between atoms: _291  and  _293
REMARK  127  A    between atoms: _293  and  _294
REMARK  128  A    between atoms: _293  and  _296
REMARK  129  A    between atoms: _296  and  _297
REMARK  130  A    between atoms: _300  and  _302
REMARK  131  A    between atoms: _302  and  _303
REMARK  132  A    between atoms: _302  and  _305
REMARK  133  A    between atoms: _305  and  _306
REMARK  134  A    between atoms: _309  and  _311
REMARK  135  A    between atoms: _311  and  _312
REMARK  136  A    between atoms: _311  and  _314
REMARK  137  A    between atoms: _314  and  _315
REMARK  138  A    between atoms: _315  and  _316
REMARK  139  A    between atoms: _316  and  _317
REMARK  140  A    between atoms: _317  and  _318
REMARK  141  A    between atoms: _322  and  _324
REMARK  142  A    between atoms: _324  and  _325
REMARK  143  A    between atoms: _324  and  _327
REMARK  144  A    between atoms: _327  and  _328
REMARK  145  A    between atoms: _328  and  _329
REMARK  146  A    between atoms: _329  and  _330
REMARK  147  A    between atoms: _330  and  _331
REMARK  148  A    between atoms: _335  and  _337
REMARK  149  A    between atoms: _337  and  _338
REMARK  150  A    between atoms: _337  and  _340
REMARK  151  A    between atoms: _340  and  _341
REMARK  152  A    between atoms: _346  and  _348
REMARK  153  A    between atoms: _348  and  _349
REMARK  154  A    between atoms: _348  and  _351
REMARK  155  A    between atoms: _351  and  _352
REMARK  156  A    between atoms: _355  and  _357
REMARK  157  A    between atoms: _357  and  _358
REMARK  158  A    between atoms: _357  and  _360
REMARK  159  A    between atoms: _360  and  _361
REMARK  160  A    between atoms: _364  and  _366
REMARK  161  A    between atoms: _366  and  _367
REMARK  162  A    between atoms: _366  and  _369
REMARK  163  A    between atoms: _369  and  _370
REMARK  164  A    between atoms: _370  and  _371
REMARK  165  A    between atoms: _371  and  _372
REMARK  166  A    between atoms: _372  and  _373
REMARK  167  A    between atoms: _378  and  _379
REMARK  168  A    between atoms: _384  and  _386
REMARK  169  A    between atoms: _386  and  _387
REMARK  170  A    between atoms: _386  and  _389
REMARK  171  A    between atoms: _389  and  _390
REMARK  172  A    between atoms: _390  and  _391
REMARK  173  A    between atoms: _396  and  _398
REMARK  174  A    between atoms: _398  and  _399
REMARK  175  A    between atoms: _398  and  _401
REMARK  176  A    between atoms: _401  and  _402
REMARK  177  A    between atoms: _407  and  _409
REMARK  178  A    between atoms: _409  and  _410
REMARK  179  A    between atoms: _409  and  _412
REMARK  180  A    between atoms: _412  and  _413
REMARK  181  A    between atoms: _416  and  _418
REMARK  182  A    between atoms: _418  and  _419
REMARK  183  A    between atoms: _418  and  _421
REMARK  184  A    between atoms: _421  and  _422
REMARK  185  A    between atoms: _425  and  _427
REMARK  186  A    between atoms: _427  and  _428
REMARK  187  A    between atoms: _427  and  _430
REMARK  188  A    between atoms: _430  and  _431
REMARK  189  A    between atoms: _434  and  _436
REMARK  190  A    between atoms: _436  and  _437
REMARK  191  A    between atoms: _436  and  _439
REMARK  192  A    between atoms: _439  and  _440
REMARK  193  A    between atoms: _443  and  _445
REMARK  194  A    between atoms: _445  and  _446
REMARK  195  A    between atoms: _449  and  _451
REMARK  196  A    between atoms: _451  and  _452
REMARK  197  A    between atoms: _451  and  _454
REMARK  198  A    between atoms: _454  and  _455
REMARK  199  A    between atoms: _455  and  _457
REMARK  200  A    between atoms: _457  and  MG_558
REMARK  201  A    between atoms: _458  and  _460
REMARK  202  A    between atoms: _460  and  _461
REMARK  203  A    between atoms: _460  and  _463
REMARK  204  A    between atoms: _463  and  _464
REMARK  205  A    between atoms: _470  and  _472
REMARK  206  A    between atoms: _472  and  _473
REMARK  207  A    between atoms: _472  and  _475
REMARK  208  A    between atoms: _475  and  _476
REMARK  209  A    between atoms: _479  and  _481
REMARK  210  A    between atoms: _481  and  _482
REMARK  211  A    between atoms: _485  and  _487
REMARK  212  A    between atoms: _487  and  _488
REMARK  213  A    between atoms: _487  and  _490
REMARK  214  A    between atoms: _494  and  _495
REMARK  215  A    between atoms: _500  and  _502
REMARK  216  A    between atoms: _502  and  _503
REMARK  217  A    between atoms: _502  and  _505
REMARK  218  A    between atoms: _505  and  _506
REMARK  219  A    between atoms: _509  and  _511
REMARK  220  A    between atoms: _511  and  _512
REMARK  221  A    between atoms: _511  and  _514
REMARK  222  A    between atoms: _514  and  _515
REMARK  223  A    between atoms: _520  and  _521
REMARK  224  A    between atoms: _523  and  _525
REMARK  225  A    between atoms: _525  and  _526
REMARK  226  A    between atoms: _525  and  _528
REMARK  227  A    between atoms: _528  and  _529
REMARK  228  A    between atoms: _529  and  _530
REMARK  229  A    between atoms: _533  and  _535
REMARK  230  A    between atoms: _535  and  _536
REMARK  231  A    between atoms: _535  and  _538
REMARK  232  A    between atoms: _541  and  _543
REMARK  233  A    between atoms: _543  and  _544
REMARK  234  A    between atoms: _543  and  _546
REMARK  235  A    between atoms: _549  and  _551
REMARK  236  A    between atoms: _551  and  _552
REMARK  237  A    between atoms: _551  and  _554
REMARK  238  A    between atoms: _554  and  _555
REMARK                            x       y       z     vdW  Elec       q    Type
REMARK                         _______ _______ _______ _____ _____    ______ ____
ROOT
ATOM      1  O   HOH     1      -2.483  35.668  14.259  0.00  0.00    +0.000 OA
ENDROOT
TORSDOF 0
REMARK  Name = ../refined-set-2016/1b38/1b38_pocket.pdb
REMARK  238 active torsions:
REMARK  status: ('A' for Active; 'I' for Inactive)
REMARK    1  A    between atoms: _1  and  _3
REMARK    2  A    between atoms: _3  and  _4
REMARK    3  A    between atoms: _3  and  _6
REMARK    4  A    between atoms: _6  and  _7
REMARK    5  A    between atoms: _7  and  _8
REMARK    6  A    between atoms: _8  and  _9
REMARK    7  A    between atoms: _9  and  _10
REMARK    8  A    between atoms: _14  and  _16
REMARK    9  A    between atoms: _16  and  _17
REMARK   10  A    between atoms: _16  and  _19
REMARK   11  A    between atoms: _19  and  _20
REMARK   12  A    between atoms: _23  and  _25
REMARK   13  A    between atoms: _25  and  _26
REMARK   14  A    between atoms: _28  and  _30
REMARK   15  A    between atoms: _30  and  _31
REMARK   16  A    between atoms: _30  and  _33
REMARK   17  A    between atoms: _33  and  _34
REMARK   18  A    between atoms: _34  and  _35
REMARK   19  A    between atoms: _38  and  _40
REMARK   20  A    between atoms: _40  and  _41
REMARK   21  A    between atoms: _43  and  _45
REMARK   22  A    between atoms: _45  and  _46
REMARK   23  A    between atoms: _45  and  _48
REMARK   24  A    between atoms: _48  and  _49
REMARK   25  A    between atoms: _52  and  _54
REMARK   26  A    between atoms: _54  and  _55
REMARK   27  A    between atoms: _54  and  _57
REMARK   28  A    between atoms: _57  and  _58
REMARK   29  A    between atoms: _63  and  _64
REMARK   30  A    between atoms: _66  and  _68
REMARK   31  A    between atoms: _68  and  _69
REMARK   32  A    between atoms: _71  and  _73
REMARK   33  A    between atoms: _73  and  _74
REMARK   34  A    between atoms: _73  and  _76
REMARK   35  A    between atoms: _79  and  _81
REMARK   36  A    between atoms: _81  and  _82
REMARK   37  A    between atoms: _81  and  _84
REMARK   38  A    between atoms: _87  and  _89
REMARK   39  A    between atoms: _89  and  _90
REMARK   40  A    between atoms: _89  and  _92
REMARK   41  A    between atoms: _92  and  _93
REMARK   42  A    between atoms: _98  and  _99
REMARK   43  A    between atoms: _101  and  _103
REMARK   44  A    between atoms: _103  and  _104
REMARK   45  A    between atoms: _103  and  _106
REMARK   46  A    between atoms: _106  and  _107
REMARK   47  A    between atoms: _107  and  _108
REMARK   48  A    between atoms: _108  and  _109
REMARK   49  A    between atoms: _109  and  _110
REMARK   50  A    between atoms: _114  and  _116
REMARK   51  A    between atoms: _116  and  _117
REMARK   52  A    between atoms: _120  and  _122
REMARK   53  A    between atoms: _122  and  _123
REMARK   54  A    between atoms: _122  and  _125
REMARK   55  A    between atoms: _128  and  _130
REMARK   56  A    between atoms: _130  and  _131
REMARK   57  A    between atoms: _134  and  _136
REMARK   58  A    between atoms: _136  and  _137
REMARK   59  A    between atoms: _136  and  _139
REMARK   60  A    between atoms: _139  and  _140
REMARK   61  A    between atoms: _143  and  _145
REMARK   62  A    between atoms: _145  and  _146
REMARK   63  A    between atoms: _145  and  _148
REMARK   64  A    between atoms: _148  and  _149
REMARK   65  A    between atoms: _149  and  _150
REMARK   66  A    between atoms: _150  and  _151
REMARK   67  A    between atoms: _151  and  _152
REMARK   68  A    between atoms: _156  and  _158
REMARK   69  A    between atoms: _158  and  _159
REMARK   70  A    between atoms: _158  and  _161
REMARK   71  A    between atoms: _161  and  _162
REMARK   72  A    between atoms: _162  and  _163
REMARK   73  A    between atoms: _163  and  _164
REMARK   74  A    between atoms: _164  and  _165
REMARK   75  A    between atoms: _169  and  _171
REMARK   76  A    between atoms: _171  and  _172
REMARK   77  A    between atoms: _171  and  _174
REMARK   78  A    between atoms: _174  and  _175
REMARK   79  A    between atoms: _178  and  _180
REMARK   80  A    between atoms: _180  and  _181
REMARK   81  A    between atoms: _180  and  _183
REMARK   82  A    between atoms: _186  and  _188
REMARK   83  A    between atoms: _188  and  _189
REMARK   84  A    between atoms: _188  and  _191
REMARK   85  A    between atoms: _191  and  _192
REMARK   86  A    between atoms: _192  and  _193
REMARK   87  A    between atoms: _193  and  _194
REMARK   88  A    between atoms: _194  and  _195
REMARK   89  A    between atoms: _199  and  _201
REMARK   90  A    between atoms: _201  and  _202
REMARK   91  A    between atoms: _201  and  _204
REMARK   92  A    between atoms: _204  and  _205
REMARK   93  A    between atoms: _208  and  _210
REMARK   94  A    between atoms: _210  and  _211
REMARK   95  A    between atoms: _210  and  _213
REMARK   96  A    between atoms: _213  and  _214
REMARK   97  A    between atoms: _217  and  _219
REMARK   98  A    between atoms: _219  and  _220
REMARK   99  A    between atoms: _219  and  _222
REMARK  100  A    between atoms: _225  and  _227
REMARK  101  A    between atoms: _227  and  _228
REMARK  102  A    between atoms: _227  and  _230
REMARK  103  A    between atoms: _230  and  _231
REMARK  104  A    between atoms: _237  and  _239
REMARK  105  A    between atoms: _239  and  _240
REMARK  106  A    between atoms: _239  and  _242
REMARK  107  A    between atoms: _242  and  _243
REMARK  108  A    between atoms: _243  and  _244
REMARK  109  A    between atoms: _247  and  _249
REMARK  110  A    between atoms: _249  and  _250
REMARK  111  A    between atoms: _249  and  _252
REMARK  112  A    between atoms: _252  and  _253
REMARK  113  A    between atoms: _259  and  _261
REMARK  114  A    between atoms: _261  and  _262
REMARK  115  A    between atoms: _261  and  _264
REMARK  116  A    between atoms: _264  and  _265
REMARK  117  A    between atoms: _268  and  _270
REMARK  118  A    between atoms: _270  and  _271
REMARK  119  A    between atoms: _270  and  _273
REMARK  120  A    between atoms: _273  and  _274
REMARK  121  A    between atoms: _279  and  _281
REMARK  122  A    between atoms: _281  and  _282
REMARK  123  A    between atoms: _281  and  _284
REMARK  124  A    between atoms: _284  and  _285
REMARK  125  A    between atoms: _285  and  _286
REMARK  126  A    between atoms: _291  and  _293
REMARK  127  A    between atoms: _293  and  _294
REMARK  128  A    between atoms: _293  and  _296
REMARK  129  A    between atoms: _296  and  _297
REMARK  130  A    between atoms: _300  and  _302
REMARK  131  A    between atoms: _302  and  _303
REMARK  132  A    between atoms: _302  and  _305
REMARK  133  A    between atoms: _305  and  _306
REMARK  134  A    between atoms: _309  and  _311
REMARK  135  A    between atoms: _311  and  _312
REMARK  136  A    between atoms: _311  and  _314
REMARK  137  A    between atoms: _314  and  _315
REMARK  138  A    between atoms: _315  and  _316
REMARK  139  A    between atoms: _316  and  _317
REMARK  140  A    between atoms: _317  and  _318
REMARK  141  A    between atoms: _322  and  _324
REMARK  142  A    between atoms: _324  and  _325
REMARK  143  A    between atoms: _324  and  _327
REMARK  144  A    between atoms: _327  and  _328
REMARK  145  A    between atoms: _328  and  _329
REMARK  146  A    between atoms: _329  and  _330
REMARK  147  A    between atoms: _330  and  _331
REMARK  148  A    between atoms: _335  and  _337
REMARK  149  A    between atoms: _337  and  _338
REMARK  150  A    between atoms: _337  and  _340
REMARK  151  A    between atoms: _340  and  _341
REMARK  152  A    between atoms: _346  and  _348
REMARK  153  A    between atoms: _348  and  _349
REMARK  154  A    between atoms: _348  and  _351
REMARK  155  A    between atoms: _351  and  _352
REMARK  156  A    between atoms: _355  and  _357
REMARK  157  A    between atoms: _357  and  _358
REMARK  158  A    between atoms: _357  and  _360
REMARK  159  A    between atoms: _360  and  _361
REMARK  160  A    between atoms: _364  and  _366
REMARK  161  A    between atoms: _366  and  _367
REMARK  162  A    between atoms: _366  and  _369
REMARK  163  A    between atoms: _369  and  _370
REMARK  164  A    between atoms: _370  and  _371
REMARK  165  A    between atoms: _371  and  _372
REMARK  166  A    between atoms: _372  and  _373
REMARK  167  A    between atoms: _378  and  _379
REMARK  168  A    between atoms: _384  and  _386
REMARK  169  A    between atoms: _386  and  _387
REMARK  170  A    between atoms: _386  and  _389
REMARK  171  A    between atoms: _389  and  _390
REMARK  172  A    between atoms: _390  and  _391
REMARK  173  A    between atoms: _396  and  _398
REMARK  174  A    between atoms: _398  and  _399
REMARK  175  A    between atoms: _398  and  _401
REMARK  176  A    between atoms: _401  and  _402
REMARK  177  A    between atoms: _407  and  _409
REMARK  178  A    between atoms: _409  and  _410
REMARK  179  A    between atoms: _409  and  _412
REMARK  180  A    between atoms: _412  and  _413
REMARK  181  A    between atoms: _416  and  _418
REMARK  182  A    between atoms: _418  and  _419
REMARK  183  A    between atoms: _418  and  _421
REMARK  184  A    between atoms: _421  and  _422
REMARK  185  A    between atoms: _425  and  _427
REMARK  186  A    between atoms: _427  and  _428
REMARK  187  A    between atoms: _427  and  _430
REMARK  188  A    between atoms: _430  and  _431
REMARK  189  A    between atoms: _434  and  _436
REMARK  190  A    between atoms: _436  and  _437
REMARK  191  A    between atoms: _436  and  _439
REMARK  192  A    between atoms: _439  and  _440
REMARK  193  A    between atoms: _443  and  _445
REMARK  194  A    between atoms: _445  and  _446
REMARK  195  A    between atoms: _449  and  _451
REMARK  196  A    between atoms: _451  and  _452
REMARK  197  A    between atoms: _451  and  _454
REMARK  198  A    between atoms: _454  and  _455
REMARK  199  A    between atoms: _455  and  _457
REMARK  200  A    between atoms: _457  and  MG_558
REMARK  201  A    between atoms: _458  and  _460
REMARK  202  A    between atoms: _460  and  _461
REMARK  203  A    between atoms: _460  and  _463
REMARK  204  A    between atoms: _463  and  _464
REMARK  205  A    between atoms: _470  and  _472
REMARK  206  A    between atoms: _472  and  _473
REMARK  207  A    between atoms: _472  and  _475
REMARK  208  A    between atoms: _475  and  _476
REMARK  209  A    between atoms: _479  and  _481
REMARK  210  A    between atoms: _481  and  _482
REMARK  211  A    between atoms: _485  and  _487
REMARK  212  A    between atoms: _487  and  _488
REMARK  213  A    between atoms: _487  and  _490
REMARK  214  A    between atoms: _494  and  _495
REMARK  215  A    between atoms: _500  and  _502
REMARK  216  A    between atoms: _502  and  _503
REMARK  217  A    between atoms: _502  and  _505
REMARK  218  A    between atoms: _505  and  _506
REMARK  219  A    between atoms: _509  and  _511
REMARK  220  A    between atoms: _511  and  _512
REMARK  221  A    between atoms: _511  and  _514
REMARK  222  A    between atoms: _514  and  _515
REMARK  223  A    between atoms: _520  and  _521
REMARK  224  A    between atoms: _523  and  _525
REMARK  225  A    between atoms: _525  and  _526
REMARK  226  A    between atoms: _525  and  _528
REMARK  227  A    between atoms: _528  and  _529
REMARK  228  A    between atoms: _529  and  _530
REMARK  229  A    between atoms: _533  and  _535
REMARK  230  A    between atoms: _535  and  _536
REMARK  231  A    between atoms: _535  and  _538
REMARK  232  A    between atoms: _541  and  _543
REMARK  233  A    between atoms: _543  and  _544
REMARK  234  A    between atoms: _543  and  _546
REMARK  235  A    between atoms: _549  and  _551
REMARK  236  A    between atoms: _551  and  _552
REMARK  237  A    between atoms: _551  and  _554
REMARK  238  A    between atoms: _554  and  _555
REMARK                            x       y       z     vdW  Elec       q    Type
REMARK                         _______ _______ _______ _____ _____    ______ ____
ROOT
ATOM      1  O   HOH     1      -6.370  31.281  19.476  0.00  0.00    +0.000 OA
ENDROOT
TORSDOF 0
REMARK  Name = ../refined-set-2016/1b38/1b38_pocket.pdb
REMARK  238 active torsions:
REMARK  status: ('A' for Active; 'I' for Inactive)
REMARK    1  A    between atoms: _1  and  _3
REMARK    2  A    between atoms: _3  and  _4
REMARK    3  A    between atoms: _3  and  _6
REMARK    4  A    between atoms: _6  and  _7
REMARK    5  A    between atoms: _7  and  _8
REMARK    6  A    between atoms: _8  and  _9
REMARK    7  A    between atoms: _9  and  _10
REMARK    8  A    between atoms: _14  and  _16
REMARK    9  A    between atoms: _16  and  _17
REMARK   10  A    between atoms: _16  and  _19
REMARK   11  A    between atoms: _19  and  _20
REMARK   12  A    between atoms: _23  and  _25
REMARK   13  A    between atoms: _25  and  _26
REMARK   14  A    between atoms: _28  and  _30
REMARK   15  A    between atoms: _30  and  _31
REMARK   16  A    between atoms: _30  and  _33
REMARK   17  A    between atoms: _33  and  _34
REMARK   18  A    between atoms: _34  and  _35
REMARK   19  A    between atoms: _38  and  _40
REMARK   20  A    between atoms: _40  and  _41
REMARK   21  A    between atoms: _43  and  _45
REMARK   22  A    between atoms: _45  and  _46
REMARK   23  A    between atoms: _45  and  _48
REMARK   24  A    between atoms: _48  and  _49
REMARK   25  A    between atoms: _52  and  _54
REMARK   26  A    between atoms: _54  and  _55
REMARK   27  A    between atoms: _54  and  _57
REMARK   28  A    between atoms: _57  and  _58
REMARK   29  A    between atoms: _63  and  _64
REMARK   30  A    between atoms: _66  and  _68
REMARK   31  A    between atoms: _68  and  _69
REMARK   32  A    between atoms: _71  and  _73
REMARK   33  A    between atoms: _73  and  _74
REMARK   34  A    between atoms: _73  and  _76
REMARK   35  A    between atoms: _79  and  _81
REMARK   36  A    between atoms: _81  and  _82
REMARK   37  A    between atoms: _81  and  _84
REMARK   38  A    between atoms: _87  and  _89
REMARK   39  A    between atoms: _89  and  _90
REMARK   40  A    between atoms: _89  and  _92
REMARK   41  A    between atoms: _92  and  _93
REMARK   42  A    between atoms: _98  and  _99
REMARK   43  A    between atoms: _101  and  _103
REMARK   44  A    between atoms: _103  and  _104
REMARK   45  A    between atoms: _103  and  _106
REMARK   46  A    between atoms: _106  and  _107
REMARK   47  A    between atoms: _107  and  _108
REMARK   48  A    between atoms: _108  and  _109
REMARK   49  A    between atoms: _109  and  _110
REMARK   50  A    between atoms: _114  and  _116
REMARK   51  A    between atoms: _116  and  _117
REMARK   52  A    between atoms: _120  and  _122
REMARK   53  A    between atoms: _122  and  _123
REMARK   54  A    between atoms: _122  and  _125
REMARK   55  A    between atoms: _128  and  _130
REMARK   56  A    between atoms: _130  and  _131
REMARK   57  A    between atoms: _134  and  _136
REMARK   58  A    between atoms: _136  and  _137
REMARK   59  A    between atoms: _136  and  _139
REMARK   60  A    between atoms: _139  and  _140
REMARK   61  A    between atoms: _143  and  _145
REMARK   62  A    between atoms: _145  and  _146
REMARK   63  A    between atoms: _145  and  _148
REMARK   64  A    between atoms: _148  and  _149
REMARK   65  A    between atoms: _149  and  _150
REMARK   66  A    between atoms: _150  and  _151
REMARK   67  A    between atoms: _151  and  _152
REMARK   68  A    between atoms: _156  and  _158
REMARK   69  A    between atoms: _158  and  _159
REMARK   70  A    between atoms: _158  and  _161
REMARK   71  A    between atoms: _161  and  _162
REMARK   72  A    between atoms: _162  and  _163
REMARK   73  A    between atoms: _163  and  _164
REMARK   74  A    between atoms: _164  and  _165
REMARK   75  A    between atoms: _169  and  _171
REMARK   76  A    between atoms: _171  and  _172
REMARK   77  A    between atoms: _171  and  _174
REMARK   78  A    between atoms: _174  and  _175
REMARK   79  A    between atoms: _178  and  _180
REMARK   80  A    between atoms: _180  and  _181
REMARK   81  A    between atoms: _180  and  _183
REMARK   82  A    between atoms: _186  and  _188
REMARK   83  A    between atoms: _188  and  _189
REMARK   84  A    between atoms: _188  and  _191
REMARK   85  A    between atoms: _191  and  _192
REMARK   86  A    between atoms: _192  and  _193
REMARK   87  A    between atoms: _193  and  _194
REMARK   88  A    between atoms: _194  and  _195
REMARK   89  A    between atoms: _199  and  _201
REMARK   90  A    between atoms: _201  and  _202
REMARK   91  A    between atoms: _201  and  _204
REMARK   92  A    between atoms: _204  and  _205
REMARK   93  A    between atoms: _208  and  _210
REMARK   94  A    between atoms: _210  and  _211
REMARK   95  A    between atoms: _210  and  _213
REMARK   96  A    between atoms: _213  and  _214
REMARK   97  A    between atoms: _217  and  _219
REMARK   98  A    between atoms: _219  and  _220
REMARK   99  A    between atoms: _219  and  _222
REMARK  100  A    between atoms: _225  and  _227
REMARK  101  A    between atoms: _227  and  _228
REMARK  102  A    between atoms: _227  and  _230
REMARK  103  A    between atoms: _230  and  _231
REMARK  104  A    between atoms: _237  and  _239
REMARK  105  A    between atoms: _239  and  _240
REMARK  106  A    between atoms: _239  and  _242
REMARK  107  A    between atoms: _242  and  _243
REMARK  108  A    between atoms: _243  and  _244
REMARK  109  A    between atoms: _247  and  _249
REMARK  110  A    between atoms: _249  and  _250
REMARK  111  A    between atoms: _249  and  _252
REMARK  112  A    between atoms: _252  and  _253
REMARK  113  A    between atoms: _259  and  _261
REMARK  114  A    between atoms: _261  and  _262
REMARK  115  A    between atoms: _261  and  _264
REMARK  116  A    between atoms: _264  and  _265
REMARK  117  A    between atoms: _268  and  _270
REMARK  118  A    between atoms: _270  and  _271
REMARK  119  A    between atoms: _270  and  _273
REMARK  120  A    between atoms: _273  and  _274
REMARK  121  A    between atoms: _279  and  _281
REMARK  122  A    between atoms: _281  and  _282
REMARK  123  A    between atoms: _281  and  _284
REMARK  124  A    between atoms: _284  and  _285
REMARK  125  A    between atoms: _285  and  _286
REMARK  126  A    between atoms: _291  and  _293
REMARK  127  A    between atoms: _293  and  _294
REMARK  128  A    between atoms: _293  and  _296
REMARK  129  A    between atoms: _296  and  _297
REMARK  130  A    between atoms: _300  and  _302
REMARK  131  A    between atoms: _302  and  _303
REMARK  132  A    between atoms: _302  and  _305
REMARK  133  A    between atoms: _305  and  _306
REMARK  134  A    between atoms: _309  and  _311
REMARK  135  A    between atoms: _311  and  _312
REMARK  136  A    between atoms: _311  and  _314
REMARK  137  A    between atoms: _314  and  _315
REMARK  138  A    between atoms: _315  and  _316
REMARK  139  A    between atoms: _316  and  _317
REMARK  140  A    between atoms: _317  and  _318
REMARK  141  A    between atoms: _322  and  _324
REMARK  142  A    between atoms: _324  and  _325
REMARK  143  A    between atoms: _324  and  _327
REMARK  144  A    between atoms: _327  and  _328
REMARK  145  A    between atoms: _328  and  _329
REMARK  146  A    between atoms: _329  and  _330
REMARK  147  A    between atoms: _330  and  _331
REMARK  148  A    between atoms: _335  and  _337
REMARK  149  A    between atoms: _337  and  _338
REMARK  150  A    between atoms: _337  and  _340
REMARK  151  A    between atoms: _340  and  _341
REMARK  152  A    between atoms: _346  and  _348
REMARK  153  A    between atoms: _348  and  _349
REMARK  154  A    between atoms: _348  and  _351
REMARK  155  A    between atoms: _351  and  _352
REMARK  156  A    between atoms: _355  and  _357
REMARK  157  A    between atoms: _357  and  _358
REMARK  158  A    between atoms: _357  and  _360
REMARK  159  A    between atoms: _360  and  _361
REMARK  160  A    between atoms: _364  and  _366
REMARK  161  A    between atoms: _366  and  _367
REMARK  162  A    between atoms: _366  and  _369
REMARK  163  A    between atoms: _369  and  _370
REMARK  164  A    between atoms: _370  and  _371
REMARK  165  A    between atoms: _371  and  _372
REMARK  166  A    between atoms: _372  and  _373
REMARK  167  A    between atoms: _378  and  _379
REMARK  168  A    between atoms: _384  and  _386
REMARK  169  A    between atoms: _386  and  _387
REMARK  170  A    between atoms: _386  and  _389
REMARK  171  A    between atoms: _389  and  _390
REMARK  172  A    between atoms: _390  and  _391
REMARK  173  A    between atoms: _396  and  _398
REMARK  174  A    between atoms: _398  and  _399
REMARK  175  A    between atoms: _398  and  _401
REMARK  176  A    between atoms: _401  and  _402
REMARK  177  A    between atoms: _407  and  _409
REMARK  178  A    between atoms: _409  and  _410
REMARK  179  A    between atoms: _409  and  _412
REMARK  180  A    between atoms: _412  and  _413
REMARK  181  A    between atoms: _416  and  _418
REMARK  182  A    between atoms: _418  and  _419
REMARK  183  A    between atoms: _418  and  _421
REMARK  184  A    between atoms: _421  and  _422
REMARK  185  A    between atoms: _425  and  _427
REMARK  186  A    between atoms: _427  and  _428
REMARK  187  A    between atoms: _427  and  _430
REMARK  188  A    between atoms: _430  and  _431
REMARK  189  A    between atoms: _434  and  _436
REMARK  190  A    between atoms: _436  and  _437
REMARK  191  A    between atoms: _436  and  _439
REMARK  192  A    between atoms: _439  and  _440
REMARK  193  A    between atoms: _443  and  _445
REMARK  194  A    between atoms: _445  and  _446
REMARK  195  A    between atoms: _449  and  _451
REMARK  196  A    between atoms: _451  and  _452
REMARK  197  A    between atoms: _451  and  _454
REMARK  198  A    between atoms: _454  and  _455
REMARK  199  A    between atoms: _455  and  _457
REMARK  200  A    between atoms: _457  and  MG_558
REMARK  201  A    between atoms: _458  and  _460
REMARK  202  A    between atoms: _460  and  _461
REMARK  203  A    between atoms: _460  and  _463
REMARK  204  A    between atoms: _463  and  _464
REMARK  205  A    between atoms: _470  and  _472
REMARK  206  A    between atoms: _472  and  _473
REMARK  207  A    between atoms: _472  and  _475
REMARK  208  A    between atoms: _475  and  _476
REMARK  209  A    between atoms: _479  and  _481
REMARK  210  A    between atoms: _481  and  _482
REMARK  211  A    between atoms: _485  and  _487
REMARK  212  A    between atoms: _487  and  _488
REMARK  213  A    between atoms: _487  and  _490
REMARK  214  A    between atoms: _494  and  _495
REMARK  215  A    between atoms: _500  and  _502
REMARK  216  A    between atoms: _502  and  _503
REMARK  217  A    between atoms: _502  and  _505
REMARK  218  A    between atoms: _505  and  _506
REMARK  219  A    between atoms: _509  and  _511
REMARK  220  A    between atoms: _511  and  _512
REMARK  221  A    between atoms: _511  and  _514
REMARK  222  A    between atoms: _514  and  _515
REMARK  223  A    between atoms: _520  and  _521
REMARK  224  A    between atoms: _523  and  _525
REMARK  225  A    between atoms: _525  and  _526
REMARK  226  A    between atoms: _525  and  _528
REMARK  227  A    between atoms: _528  and  _529
REMARK  228  A    between atoms: _529  and  _530
REMARK  229  A    between atoms: _533  and  _535
REMARK  230  A    between atoms: _535  and  _536
REMARK  231  A    between atoms: _535  and  _538
REMARK  232  A    between atoms: _541  and  _543
REMARK  233  A    between atoms: _543  and  _544
REMARK  234  A    between atoms: _543  and  _546
REMARK  235  A    between atoms: _549  and  _551
REMARK  236  A    between atoms: _551  and  _552
REMARK  237  A    between atoms: _551  and  _554
REMARK  238  A    between atoms: _554  and  _555
REMARK                            x       y       z     vdW  Elec       q    Type
REMARK                         _______ _______ _______ _____ _____    ______ ____
ROOT
ATOM      1  O   HOH     1       6.497  27.548   0.225  0.00  0.00    +0.000 OA
ENDROOT
TORSDOF 0
REMARK  Name = ../refined-set-2016/1b38/1b38_pocket.pdb
REMARK  238 active torsions:
REMARK  status: ('A' for Active; 'I' for Inactive)
REMARK    1  A    between atoms: _1  and  _3
REMARK    2  A    between atoms: _3  and  _4
REMARK    3  A    between atoms: _3  and  _6
REMARK    4  A    between atoms: _6  and  _7
REMARK    5  A    between atoms: _7  and  _8
REMARK    6  A    between atoms: _8  and  _9
REMARK    7  A    between atoms: _9  and  _10
REMARK    8  A    between atoms: _14  and  _16
REMARK    9  A    between atoms: _16  and  _17
REMARK   10  A    between atoms: _16  and  _19
REMARK   11  A    between atoms: _19  and  _20
REMARK   12  A    between atoms: _23  and  _25
REMARK   13  A    between atoms: _25  and  _26
REMARK   14  A    between atoms: _28  and  _30
REMARK   15  A    between atoms: _30  and  _31
REMARK   16  A    between atoms: _30  and  _33
REMARK   17  A    between atoms: _33  and  _34
REMARK   18  A    between atoms: _34  and  _35
REMARK   19  A    between atoms: _38  and  _40
REMARK   20  A    between atoms: _40  and  _41
REMARK   21  A    between atoms: _43  and  _45
REMARK   22  A    between atoms: _45  and  _46
REMARK   23  A    between atoms: _45  and  _48
REMARK   24  A    between atoms: _48  and  _49
REMARK   25  A    between atoms: _52  and  _54
REMARK   26  A    between atoms: _54  and  _55
REMARK   27  A    between atoms: _54  and  _57
REMARK   28  A    between atoms: _57  and  _58
REMARK   29  A    between atoms: _63  and  _64
REMARK   30  A    between atoms: _66  and  _68
REMARK   31  A    between atoms: _68  and  _69
REMARK   32  A    between atoms: _71  and  _73
REMARK   33  A    between atoms: _73  and  _74
REMARK   34  A    between atoms: _73  and  _76
REMARK   35  A    between atoms: _79  and  _81
REMARK   36  A    between atoms: _81  and  _82
REMARK   37  A    between atoms: _81  and  _84
REMARK   38  A    between atoms: _87  and  _89
REMARK   39  A    between atoms: _89  and  _90
REMARK   40  A    between atoms: _89  and  _92
REMARK   41  A    between atoms: _92  and  _93
REMARK   42  A    between atoms: _98  and  _99
REMARK   43  A    between atoms: _101  and  _103
REMARK   44  A    between atoms: _103  and  _104
REMARK   45  A    between atoms: _103  and  _106
REMARK   46  A    between atoms: _106  and  _107
REMARK   47  A    between atoms: _107  and  _108
REMARK   48  A    between atoms: _108  and  _109
REMARK   49  A    between atoms: _109  and  _110
REMARK   50  A    between atoms: _114  and  _116
REMARK   51  A    between atoms: _116  and  _117
REMARK   52  A    between atoms: _120  and  _122
REMARK   53  A    between atoms: _122  and  _123
REMARK   54  A    between atoms: _122  and  _125
REMARK   55  A    between atoms: _128  and  _130
REMARK   56  A    between atoms: _130  and  _131
REMARK   57  A    between atoms: _134  and  _136
REMARK   58  A    between atoms: _136  and  _137
REMARK   59  A    between atoms: _136  and  _139
REMARK   60  A    between atoms: _139  and  _140
REMARK   61  A    between atoms: _143  and  _145
REMARK   62  A    between atoms: _145  and  _146
REMARK   63  A    between atoms: _145  and  _148
REMARK   64  A    between atoms: _148  and  _149
REMARK   65  A    between atoms: _149  and  _150
REMARK   66  A    between atoms: _150  and  _151
REMARK   67  A    between atoms: _151  and  _152
REMARK   68  A    between atoms: _156  and  _158
REMARK   69  A    between atoms: _158  and  _159
REMARK   70  A    between atoms: _158  and  _161
REMARK   71  A    between atoms: _161  and  _162
REMARK   72  A    between atoms: _162  and  _163
REMARK   73  A    between atoms: _163  and  _164
REMARK   74  A    between atoms: _164  and  _165
REMARK   75  A    between atoms: _169  and  _171
REMARK   76  A    between atoms: _171  and  _172
REMARK   77  A    between atoms: _171  and  _174
REMARK   78  A    between atoms: _174  and  _175
REMARK   79  A    between atoms: _178  and  _180
REMARK   80  A    between atoms: _180  and  _181
REMARK   81  A    between atoms: _180  and  _183
REMARK   82  A    between atoms: _186  and  _188
REMARK   83  A    between atoms: _188  and  _189
REMARK   84  A    between atoms: _188  and  _191
REMARK   85  A    between atoms: _191  and  _192
REMARK   86  A    between atoms: _192  and  _193
REMARK   87  A    between atoms: _193  and  _194
REMARK   88  A    between atoms: _194  and  _195
REMARK   89  A    between atoms: _199  and  _201
REMARK   90  A    between atoms: _201  and  _202
REMARK   91  A    between atoms: _201  and  _204
REMARK   92  A    between atoms: _204  and  _205
REMARK   93  A    between atoms: _208  and  _210
REMARK   94  A    between atoms: _210  and  _211
REMARK   95  A    between atoms: _210  and  _213
REMARK   96  A    between atoms: _213  and  _214
REMARK   97  A    between atoms: _217  and  _219
REMARK   98  A    between atoms: _219  and  _220
REMARK   99  A    between atoms: _219  and  _222
REMARK  100  A    between atoms: _225  and  _227
REMARK  101  A    between atoms: _227  and  _228
REMARK  102  A    between atoms: _227  and  _230
REMARK  103  A    between atoms: _230  and  _231
REMARK  104  A    between atoms: _237  and  _239
REMARK  105  A    between atoms: _239  and  _240
REMARK  106  A    between atoms: _239  and  _242
REMARK  107  A    between atoms: _242  and  _243
REMARK  108  A    between atoms: _243  and  _244
REMARK  109  A    between atoms: _247  and  _249
REMARK  110  A    between atoms: _249  and  _250
REMARK  111  A    between atoms: _249  and  _252
REMARK  112  A    between atoms: _252  and  _253
REMARK  113  A    between atoms: _259  and  _261
REMARK  114  A    between atoms: _261  and  _262
REMARK  115  A    between atoms: _261  and  _264
REMARK  116  A    between atoms: _264  and  _265
REMARK  117  A    between atoms: _268  and  _270
REMARK  118  A    between atoms: _270  and  _271
REMARK  119  A    between atoms: _270  and  _273
REMARK  120  A    between atoms: _273  and  _274
REMARK  121  A    between atoms: _279  and  _281
REMARK  122  A    between atoms: _281  and  _282
REMARK  123  A    between atoms: _281  and  _284
REMARK  124  A    between atoms: _284  and  _285
REMARK  125  A    between atoms: _285  and  _286
REMARK  126  A    between atoms: _291  and  _293
REMARK  127  A    between atoms: _293  and  _294
REMARK  128  A    between atoms: _293  and  _296
REMARK  129  A    between atoms: _296  and  _297
REMARK  130  A    between atoms: _300  and  _302
REMARK  131  A    between atoms: _302  and  _303
REMARK  132  A    between atoms: _302  and  _305
REMARK  133  A    between atoms: _305  and  _306
REMARK  134  A    between atoms: _309  and  _311
REMARK  135  A    between atoms: _311  and  _312
REMARK  136  A    between atoms: _311  and  _314
REMARK  137  A    between atoms: _314  and  _315
REMARK  138  A    between atoms: _315  and  _316
REMARK  139  A    between atoms: _316  and  _317
REMARK  140  A    between atoms: _317  and  _318
REMARK  141  A    between atoms: _322  and  _324
REMARK  142  A    between atoms: _324  and  _325
REMARK  143  A    between atoms: _324  and  _327
REMARK  144  A    between atoms: _327  and  _328
REMARK  145  A    between atoms: _328  and  _329
REMARK  146  A    between atoms: _329  and  _330
REMARK  147  A    between atoms: _330  and  _331
REMARK  148  A    between atoms: _335  and  _337
REMARK  149  A    between atoms: _337  and  _338
REMARK  150  A    between atoms: _337  and  _340
REMARK  151  A    between atoms: _340  and  _341
REMARK  152  A    between atoms: _346  and  _348
REMARK  153  A    between atoms: _348  and  _349
REMARK  154  A    between atoms: _348  and  _351
REMARK  155  A    between atoms: _351  and  _352
REMARK  156  A    between atoms: _355  and  _357
REMARK  157  A    between atoms: _357  and  _358
REMARK  158  A    between atoms: _357  and  _360
REMARK  159  A    between atoms: _360  and  _361
REMARK  160  A    between atoms: _364  and  _366
REMARK  161  A    between atoms: _366  and  _367
REMARK  162  A    between atoms: _366  and  _369
REMARK  163  A    between atoms: _369  and  _370
REMARK  164  A    between atoms: _370  and  _371
REMARK  165  A    between atoms: _371  and  _372
REMARK  166  A    between atoms: _372  and  _373
REMARK  167  A    between atoms: _378  and  _379
REMARK  168  A    between atoms: _384  and  _386
REMARK  169  A    between atoms: _386  and  _387
REMARK  170  A    between atoms: _386  and  _389
REMARK  171  A    between atoms: _389  and  _390
REMARK  172  A    between atoms: _390  and  _391
REMARK  173  A    between atoms: _396  and  _398
REMARK  174  A    between atoms: _398  and  _399
REMARK  175  A    between atoms: _398  and  _401
REMARK  176  A    between atoms: _401  and  _402
REMARK  177  A    between atoms: _407  and  _409
REMARK  178  A    between atoms: _409  and  _410
REMARK  179  A    between atoms: _409  and  _412
REMARK  180  A    between atoms: _412  and  _413
REMARK  181  A    between atoms: _416  and  _418
REMARK  182  A    between atoms: _418  and  _419
REMARK  183  A    between atoms: _418  and  _421
REMARK  184  A    between atoms: _421  and  _422
REMARK  185  A    between atoms: _425  and  _427
REMARK  186  A    between atoms: _427  and  _428
REMARK  187  A    between atoms: _427  and  _430
REMARK  188  A    between atoms: _430  and  _431
REMARK  189  A    between atoms: _434  and  _436
REMARK  190  A    between atoms: _436  and  _437
REMARK  191  A    between atoms: _436  and  _439
REMARK  192  A    between atoms: _439  and  _440
REMARK  193  A    between atoms: _443  and  _445
REMARK  194  A    between atoms: _445  and  _446
REMARK  195  A    between atoms: _449  and  _451
REMARK  196  A    between atoms: _451  and  _452
REMARK  197  A    between atoms: _451  and  _454
REMARK  198  A    between atoms: _454  and  _455
REMARK  199  A    between atoms: _455  and  _457
REMARK  200  A    between atoms: _457  and  MG_558
REMARK  201  A    between atoms: _458  and  _460
REMARK  202  A    between atoms: _460  and  _461
REMARK  203  A    between atoms: _460  and  _463
REMARK  204  A    between atoms: _463  and  _464
REMARK  205  A    between atoms: _470  and  _472
REMARK  206  A    between atoms: _472  and  _473
REMARK  207  A    between atoms: _472  and  _475
REMARK  208  A    between atoms: _475  and  _476
REMARK  209  A    between atoms: _479  and  _481
REMARK  210  A    between atoms: _481  and  _482
REMARK  211  A    between atoms: _485  and  _487
REMARK  212  A    between atoms: _487  and  _488
REMARK  213  A    between atoms: _487  and  _490
REMARK  214  A    between atoms: _494  and  _495
REMARK  215  A    between atoms: _500  and  _502
REMARK  216  A    between atoms: _502  and  _503
REMARK  217  A    between atoms: _502  and  _505
REMARK  218  A    between atoms: _505  and  _506
REMARK  219  A    between atoms: _509  and  _511
REMARK  220  A    between atoms: _511  and  _512
REMARK  221  A    between atoms: _511  and  _514
REMARK  222  A    between atoms: _514  and  _515
REMARK  223  A    between atoms: _520  and  _521
REMARK  224  A    between atoms: _523  and  _525
REMARK  225  A    between atoms: _525  and  _526
REMARK  226  A    between atoms: _525  and  _528
REMARK  227  A    between atoms: _528  and  _529
REMARK  228  A    between atoms: _529  and  _530
REMARK  229  A    between atoms: _533  and  _535
REMARK  230  A    between atoms: _535  and  _536
REMARK  231  A    between atoms: _535  and  _538
REMARK  232  A    between atoms: _541  and  _543
REMARK  233  A    between atoms: _543  and  _544
REMARK  234  A    between atoms: _543  and  _546
REMARK  235  A    between atoms: _549  and  _551
REMARK  236  A    between atoms: _551  and  _552
REMARK  237  A    between atoms: _551  and  _554
REMARK  238  A    between atoms: _554  and  _555
REMARK                            x       y       z     vdW  Elec       q    Type
REMARK                         _______ _______ _______ _____ _____    ______ ____
ROOT
ATOM      1  O   HOH     1      -5.278  23.535  23.843  0.00  0.00    +0.000 OA
ENDROOT
TORSDOF 0
REMARK  Name = ../refined-set-2016/1b38/1b38_pocket.pdb
REMARK  238 active torsions:
REMARK  status: ('A' for Active; 'I' for Inactive)
REMARK    1  A    between atoms: _1  and  _3
REMARK    2  A    between atoms: _3  and  _4
REMARK    3  A    between atoms: _3  and  _6
REMARK    4  A    between atoms: _6  and  _7
REMARK    5  A    between atoms: _7  and  _8
REMARK    6  A    between atoms: _8  and  _9
REMARK    7  A    between atoms: _9  and  _10
REMARK    8  A    between atoms: _14  and  _16
REMARK    9  A    between atoms: _16  and  _17
REMARK   10  A    between atoms: _16  and  _19
REMARK   11  A    between atoms: _19  and  _20
REMARK   12  A    between atoms: _23  and  _25
REMARK   13  A    between atoms: _25  and  _26
REMARK   14  A    between atoms: _28  and  _30
REMARK   15  A    between atoms: _30  and  _31
REMARK   16  A    between atoms: _30  and  _33
REMARK   17  A    between atoms: _33  and  _34
REMARK   18  A    between atoms: _34  and  _35
REMARK   19  A    between atoms: _38  and  _40
REMARK   20  A    between atoms: _40  and  _41
REMARK   21  A    between atoms: _43  and  _45
REMARK   22  A    between atoms: _45  and  _46
REMARK   23  A    between atoms: _45  and  _48
REMARK   24  A    between atoms: _48  and  _49
REMARK   25  A    between atoms: _52  and  _54
REMARK   26  A    between atoms: _54  and  _55
REMARK   27  A    between atoms: _54  and  _57
REMARK   28  A    between atoms: _57  and  _58
REMARK   29  A    between atoms: _63  and  _64
REMARK   30  A    between atoms: _66  and  _68
REMARK   31  A    between atoms: _68  and  _69
REMARK   32  A    between atoms: _71  and  _73
REMARK   33  A    between atoms: _73  and  _74
REMARK   34  A    between atoms: _73  and  _76
REMARK   35  A    between atoms: _79  and  _81
REMARK   36  A    between atoms: _81  and  _82
REMARK   37  A    between atoms: _81  and  _84
REMARK   38  A    between atoms: _87  and  _89
REMARK   39  A    between atoms: _89  and  _90
REMARK   40  A    between atoms: _89  and  _92
REMARK   41  A    between atoms: _92  and  _93
REMARK   42  A    between atoms: _98  and  _99
REMARK   43  A    between atoms: _101  and  _103
REMARK   44  A    between atoms: _103  and  _104
REMARK   45  A    between atoms: _103  and  _106
REMARK   46  A    between atoms: _106  and  _107
REMARK   47  A    between atoms: _107  and  _108
REMARK   48  A    between atoms: _108  and  _109
REMARK   49  A    between atoms: _109  and  _110
REMARK   50  A    between atoms: _114  and  _116
REMARK   51  A    between atoms: _116  and  _117
REMARK   52  A    between atoms: _120  and  _122
REMARK   53  A    between atoms: _122  and  _123
REMARK   54  A    between atoms: _122  and  _125
REMARK   55  A    between atoms: _128  and  _130
REMARK   56  A    between atoms: _130  and  _131
REMARK   57  A    between atoms: _134  and  _136
REMARK   58  A    between atoms: _136  and  _137
REMARK   59  A    between atoms: _136  and  _139
REMARK   60  A    between atoms: _139  and  _140
REMARK   61  A    between atoms: _143  and  _145
REMARK   62  A    between atoms: _145  and  _146
REMARK   63  A    between atoms: _145  and  _148
REMARK   64  A    between atoms: _148  and  _149
REMARK   65  A    between atoms: _149  and  _150
REMARK   66  A    between atoms: _150  and  _151
REMARK   67  A    between atoms: _151  and  _152
REMARK   68  A    between atoms: _156  and  _158
REMARK   69  A    between atoms: _158  and  _159
REMARK   70  A    between atoms: _158  and  _161
REMARK   71  A    between atoms: _161  and  _162
REMARK   72  A    between atoms: _162  and  _163
REMARK   73  A    between atoms: _163  and  _164
REMARK   74  A    between atoms: _164  and  _165
REMARK   75  A    between atoms: _169  and  _171
REMARK   76  A    between atoms: _171  and  _172
REMARK   77  A    between atoms: _171  and  _174
REMARK   78  A    between atoms: _174  and  _175
REMARK   79  A    between atoms: _178  and  _180
REMARK   80  A    between atoms: _180  and  _181
REMARK   81  A    between atoms: _180  and  _183
REMARK   82  A    between atoms: _186  and  _188
REMARK   83  A    between atoms: _188  and  _189
REMARK   84  A    between atoms: _188  and  _191
REMARK   85  A    between atoms: _191  and  _192
REMARK   86  A    between atoms: _192  and  _193
REMARK   87  A    between atoms: _193  and  _194
REMARK   88  A    between atoms: _194  and  _195
REMARK   89  A    between atoms: _199  and  _201
REMARK   90  A    between atoms: _201  and  _202
REMARK   91  A    between atoms: _201  and  _204
REMARK   92  A    between atoms: _204  and  _205
REMARK   93  A    between atoms: _208  and  _210
REMARK   94  A    between atoms: _210  and  _211
REMARK   95  A    between atoms: _210  and  _213
REMARK   96  A    between atoms: _213  and  _214
REMARK   97  A    between atoms: _217  and  _219
REMARK   98  A    between atoms: _219  and  _220
REMARK   99  A    between atoms: _219  and  _222
REMARK  100  A    between atoms: _225  and  _227
REMARK  101  A    between atoms: _227  and  _228
REMARK  102  A    between atoms: _227  and  _230
REMARK  103  A    between atoms: _230  and  _231
REMARK  104  A    between atoms: _237  and  _239
REMARK  105  A    between atoms: _239  and  _240
REMARK  106  A    between atoms: _239  and  _242
REMARK  107  A    between atoms: _242  and  _243
REMARK  108  A    between atoms: _243  and  _244
REMARK  109  A    between atoms: _247  and  _249
REMARK  110  A    between atoms: _249  and  _250
REMARK  111  A    between atoms: _249  and  _252
REMARK  112  A    between atoms: _252  and  _253
REMARK  113  A    between atoms: _259  and  _261
REMARK  114  A    between atoms: _261  and  _262
REMARK  115  A    between atoms: _261  and  _264
REMARK  116  A    between atoms: _264  and  _265
REMARK  117  A    between atoms: _268  and  _270
REMARK  118  A    between atoms: _270  and  _271
REMARK  119  A    between atoms: _270  and  _273
REMARK  120  A    between atoms: _273  and  _274
REMARK  121  A    between atoms: _279  and  _281
REMARK  122  A    between atoms: _281  and  _282
REMARK  123  A    between atoms: _281  and  _284
REMARK  124  A    between atoms: _284  and  _285
REMARK  125  A    between atoms: _285  and  _286
REMARK  126  A    between atoms: _291  and  _293
REMARK  127  A    between atoms: _293  and  _294
REMARK  128  A    between atoms: _293  and  _296
REMARK  129  A    between atoms: _296  and  _297
REMARK  130  A    between atoms: _300  and  _302
REMARK  131  A    between atoms: _302  and  _303
REMARK  132  A    between atoms: _302  and  _305
REMARK  133  A    between atoms: _305  and  _306
REMARK  134  A    between atoms: _309  and  _311
REMARK  135  A    between atoms: _311  and  _312
REMARK  136  A    between atoms: _311  and  _314
REMARK  137  A    between atoms: _314  and  _315
REMARK  138  A    between atoms: _315  and  _316
REMARK  139  A    between atoms: _316  and  _317
REMARK  140  A    between atoms: _317  and  _318
REMARK  141  A    between atoms: _322  and  _324
REMARK  142  A    between atoms: _324  and  _325
REMARK  143  A    between atoms: _324  and  _327
REMARK  144  A    between atoms: _327  and  _328
REMARK  145  A    between atoms: _328  and  _329
REMARK  146  A    between atoms: _329  and  _330
REMARK  147  A    between atoms: _330  and  _331
REMARK  148  A    between atoms: _335  and  _337
REMARK  149  A    between atoms: _337  and  _338
REMARK  150  A    between atoms: _337  and  _340
REMARK  151  A    between atoms: _340  and  _341
REMARK  152  A    between atoms: _346  and  _348
REMARK  153  A    between atoms: _348  and  _349
REMARK  154  A    between atoms: _348  and  _351
REMARK  155  A    between atoms: _351  and  _352
REMARK  156  A    between atoms: _355  and  _357
REMARK  157  A    between atoms: _357  and  _358
REMARK  158  A    between atoms: _357  and  _360
REMARK  159  A    between atoms: _360  and  _361
REMARK  160  A    between atoms: _364  and  _366
REMARK  161  A    between atoms: _366  and  _367
REMARK  162  A    between atoms: _366  and  _369
REMARK  163  A    between atoms: _369  and  _370
REMARK  164  A    between atoms: _370  and  _371
REMARK  165  A    between atoms: _371  and  _372
REMARK  166  A    between atoms: _372  and  _373
REMARK  167  A    between atoms: _378  and  _379
REMARK  168  A    between atoms: _384  and  _386
REMARK  169  A    between atoms: _386  and  _387
REMARK  170  A    between atoms: _386  and  _389
REMARK  171  A    between atoms: _389  and  _390
REMARK  172  A    between atoms: _390  and  _391
REMARK  173  A    between atoms: _396  and  _398
REMARK  174  A    between atoms: _398  and  _399
REMARK  175  A    between atoms: _398  and  _401
REMARK  176  A    between atoms: _401  and  _402
REMARK  177  A    between atoms: _407  and  _409
REMARK  178  A    between atoms: _409  and  _410
REMARK  179  A    between atoms: _409  and  _412
REMARK  180  A    between atoms: _412  and  _413
REMARK  181  A    between atoms: _416  and  _418
REMARK  182  A    between atoms: _418  and  _419
REMARK  183  A    between atoms: _418  and  _421
REMARK  184  A    between atoms: _421  and  _422
REMARK  185  A    between atoms: _425  and  _427
REMARK  186  A    between atoms: _427  and  _428
REMARK  187  A    between atoms: _427  and  _430
REMARK  188  A    between atoms: _430  and  _431
REMARK  189  A    between atoms: _434  and  _436
REMARK  190  A    between atoms: _436  and  _437
REMARK  191  A    between atoms: _436  and  _439
REMARK  192  A    between atoms: _439  and  _440
REMARK  193  A    between atoms: _443  and  _445
REMARK  194  A    between atoms: _445  and  _446
REMARK  195  A    between atoms: _449  and  _451
REMARK  196  A    between atoms: _451  and  _452
REMARK  197  A    between atoms: _451  and  _454
REMARK  198  A    between atoms: _454  and  _455
REMARK  199  A    between atoms: _455  and  _457
REMARK  200  A    between atoms: _457  and  MG_558
REMARK  201  A    between atoms: _458  and  _460
REMARK  202  A    between atoms: _460  and  _461
REMARK  203  A    between atoms: _460  and  _463
REMARK  204  A    between atoms: _463  and  _464
REMARK  205  A    between atoms: _470  and  _472
REMARK  206  A    between atoms: _472  and  _473
REMARK  207  A    between atoms: _472  and  _475
REMARK  208  A    between atoms: _475  and  _476
REMARK  209  A    between atoms: _479  and  _481
REMARK  210  A    between atoms: _481  and  _482
REMARK  211  A    between atoms: _485  and  _487
REMARK  212  A    between atoms: _487  and  _488
REMARK  213  A    between atoms: _487  and  _490
REMARK  214  A    between atoms: _494  and  _495
REMARK  215  A    between atoms: _500  and  _502
REMARK  216  A    between atoms: _502  and  _503
REMARK  217  A    between atoms: _502  and  _505
REMARK  218  A    between atoms: _505  and  _506
REMARK  219  A    between atoms: _509  and  _511
REMARK  220  A    between atoms: _511  and  _512
REMARK  221  A    between atoms: _511  and  _514
REMARK  222  A    between atoms: _514  and  _515
REMARK  223  A    between atoms: _520  and  _521
REMARK  224  A    between atoms: _523  and  _525
REMARK  225  A    between atoms: _525  and  _526
REMARK  226  A    between atoms: _525  and  _528
REMARK  227  A    between atoms: _528  and  _529
REMARK  228  A    between atoms: _529  and  _530
REMARK  229  A    between atoms: _533  and  _535
REMARK  230  A    between atoms: _535  and  _536
REMARK  231  A    between atoms: _535  and  _538
REMARK  232  A    between atoms: _541  and  _543
REMARK  233  A    between atoms: _543  and  _544
REMARK  234  A    between atoms: _543  and  _546
REMARK  235  A    between atoms: _549  and  _551
REMARK  236  A    between atoms: _551  and  _552
REMARK  237  A    between atoms: _551  and  _554
REMARK  238  A    between atoms: _554  and  _555
REMARK                            x       y       z     vdW  Elec       q    Type
REMARK                         _______ _______ _______ _____ _____    ______ ____
ROOT
ATOM      1  O   HOH     1       0.215  19.597   9.518  0.00  0.00    +0.000 OA
ENDROOT
TORSDOF 0
REMARK  Name = ../refined-set-2016/1b38/1b38_pocket.pdb
REMARK  238 active torsions:
REMARK  status: ('A' for Active; 'I' for Inactive)
REMARK    1  A    between atoms: _1  and  _3
REMARK    2  A    between atoms: _3  and  _4
REMARK    3  A    between atoms: _3  and  _6
REMARK    4  A    between atoms: _6  and  _7
REMARK    5  A    between atoms: _7  and  _8
REMARK    6  A    between atoms: _8  and  _9
REMARK    7  A    between atoms: _9  and  _10
REMARK    8  A    between atoms: _14  and  _16
REMARK    9  A    between atoms: _16  and  _17
REMARK   10  A    between atoms: _16  and  _19
REMARK   11  A    between atoms: _19  and  _20
REMARK   12  A    between atoms: _23  and  _25
REMARK   13  A    between atoms: _25  and  _26
REMARK   14  A    between atoms: _28  and  _30
REMARK   15  A    between atoms: _30  and  _31
REMARK   16  A    between atoms: _30  and  _33
REMARK   17  A    between atoms: _33  and  _34
REMARK   18  A    between atoms: _34  and  _35
REMARK   19  A    between atoms: _38  and  _40
REMARK   20  A    between atoms: _40  and  _41
REMARK   21  A    between atoms: _43  and  _45
REMARK   22  A    between atoms: _45  and  _46
REMARK   23  A    between atoms: _45  and  _48
REMARK   24  A    between atoms: _48  and  _49
REMARK   25  A    between atoms: _52  and  _54
REMARK   26  A    between atoms: _54  and  _55
REMARK   27  A    between atoms: _54  and  _57
REMARK   28  A    between atoms: _57  and  _58
REMARK   29  A    between atoms: _63  and  _64
REMARK   30  A    between atoms: _66  and  _68
REMARK   31  A    between atoms: _68  and  _69
REMARK   32  A    between atoms: _71  and  _73
REMARK   33  A    between atoms: _73  and  _74
REMARK   34  A    between atoms: _73  and  _76
REMARK   35  A    between atoms: _79  and  _81
REMARK   36  A    between atoms: _81  and  _82
REMARK   37  A    between atoms: _81  and  _84
REMARK   38  A    between atoms: _87  and  _89
REMARK   39  A    between atoms: _89  and  _90
REMARK   40  A    between atoms: _89  and  _92
REMARK   41  A    between atoms: _92  and  _93
REMARK   42  A    between atoms: _98  and  _99
REMARK   43  A    between atoms: _101  and  _103
REMARK   44  A    between atoms: _103  and  _104
REMARK   45  A    between atoms: _103  and  _106
REMARK   46  A    between atoms: _106  and  _107
REMARK   47  A    between atoms: _107  and  _108
REMARK   48  A    between atoms: _108  and  _109
REMARK   49  A    between atoms: _109  and  _110
REMARK   50  A    between atoms: _114  and  _116
REMARK   51  A    between atoms: _116  and  _117
REMARK   52  A    between atoms: _120  and  _122
REMARK   53  A    between atoms: _122  and  _123
REMARK   54  A    between atoms: _122  and  _125
REMARK   55  A    between atoms: _128  and  _130
REMARK   56  A    between atoms: _130  and  _131
REMARK   57  A    between atoms: _134  and  _136
REMARK   58  A    between atoms: _136  and  _137
REMARK   59  A    between atoms: _136  and  _139
REMARK   60  A    between atoms: _139  and  _140
REMARK   61  A    between atoms: _143  and  _145
REMARK   62  A    between atoms: _145  and  _146
REMARK   63  A    between atoms: _145  and  _148
REMARK   64  A    between atoms: _148  and  _149
REMARK   65  A    between atoms: _149  and  _150
REMARK   66  A    between atoms: _150  and  _151
REMARK   67  A    between atoms: _151  and  _152
REMARK   68  A    between atoms: _156  and  _158
REMARK   69  A    between atoms: _158  and  _159
REMARK   70  A    between atoms: _158  and  _161
REMARK   71  A    between atoms: _161  and  _162
REMARK   72  A    between atoms: _162  and  _163
REMARK   73  A    between atoms: _163  and  _164
REMARK   74  A    between atoms: _164  and  _165
REMARK   75  A    between atoms: _169  and  _171
REMARK   76  A    between atoms: _171  and  _172
REMARK   77  A    between atoms: _171  and  _174
REMARK   78  A    between atoms: _174  and  _175
REMARK   79  A    between atoms: _178  and  _180
REMARK   80  A    between atoms: _180  and  _181
REMARK   81  A    between atoms: _180  and  _183
REMARK   82  A    between atoms: _186  and  _188
REMARK   83  A    between atoms: _188  and  _189
REMARK   84  A    between atoms: _188  and  _191
REMARK   85  A    between atoms: _191  and  _192
REMARK   86  A    between atoms: _192  and  _193
REMARK   87  A    between atoms: _193  and  _194
REMARK   88  A    between atoms: _194  and  _195
REMARK   89  A    between atoms: _199  and  _201
REMARK   90  A    between atoms: _201  and  _202
REMARK   91  A    between atoms: _201  and  _204
REMARK   92  A    between atoms: _204  and  _205
REMARK   93  A    between atoms: _208  and  _210
REMARK   94  A    between atoms: _210  and  _211
REMARK   95  A    between atoms: _210  and  _213
REMARK   96  A    between atoms: _213  and  _214
REMARK   97  A    between atoms: _217  and  _219
REMARK   98  A    between atoms: _219  and  _220
REMARK   99  A    between atoms: _219  and  _222
REMARK  100  A    between atoms: _225  and  _227
REMARK  101  A    between atoms: _227  and  _228
REMARK  102  A    between atoms: _227  and  _230
REMARK  103  A    between atoms: _230  and  _231
REMARK  104  A    between atoms: _237  and  _239
REMARK  105  A    between atoms: _239  and  _240
REMARK  106  A    between atoms: _239  and  _242
REMARK  107  A    between atoms: _242  and  _243
REMARK  108  A    between atoms: _243  and  _244
REMARK  109  A    between atoms: _247  and  _249
REMARK  110  A    between atoms: _249  and  _250
REMARK  111  A    between atoms: _249  and  _252
REMARK  112  A    between atoms: _252  and  _253
REMARK  113  A    between atoms: _259  and  _261
REMARK  114  A    between atoms: _261  and  _262
REMARK  115  A    between atoms: _261  and  _264
REMARK  116  A    between atoms: _264  and  _265
REMARK  117  A    between atoms: _268  and  _270
REMARK  118  A    between atoms: _270  and  _271
REMARK  119  A    between atoms: _270  and  _273
REMARK  120  A    between atoms: _273  and  _274
REMARK  121  A    between atoms: _279  and  _281
REMARK  122  A    between atoms: _281  and  _282
REMARK  123  A    between atoms: _281  and  _284
REMARK  124  A    between atoms: _284  and  _285
REMARK  125  A    between atoms: _285  and  _286
REMARK  126  A    between atoms: _291  and  _293
REMARK  127  A    between atoms: _293  and  _294
REMARK  128  A    between atoms: _293  and  _296
REMARK  129  A    between atoms: _296  and  _297
REMARK  130  A    between atoms: _300  and  _302
REMARK  131  A    between atoms: _302  and  _303
REMARK  132  A    between atoms: _302  and  _305
REMARK  133  A    between atoms: _305  and  _306
REMARK  134  A    between atoms: _309  and  _311
REMARK  135  A    between atoms: _311  and  _312
REMARK  136  A    between atoms: _311  and  _314
REMARK  137  A    between atoms: _314  and  _315
REMARK  138  A    between atoms: _315  and  _316
REMARK  139  A    between atoms: _316  and  _317
REMARK  140  A    between atoms: _317  and  _318
REMARK  141  A    between atoms: _322  and  _324
REMARK  142  A    between atoms: _324  and  _325
REMARK  143  A    between atoms: _324  and  _327
REMARK  144  A    between atoms: _327  and  _328
REMARK  145  A    between atoms: _328  and  _329
REMARK  146  A    between atoms: _329  and  _330
REMARK  147  A    between atoms: _330  and  _331
REMARK  148  A    between atoms: _335  and  _337
REMARK  149  A    between atoms: _337  and  _338
REMARK  150  A    between atoms: _337  and  _340
REMARK  151  A    between atoms: _340  and  _341
REMARK  152  A    between atoms: _346  and  _348
REMARK  153  A    between atoms: _348  and  _349
REMARK  154  A    between atoms: _348  and  _351
REMARK  155  A    between atoms: _351  and  _352
REMARK  156  A    between atoms: _355  and  _357
REMARK  157  A    between atoms: _357  and  _358
REMARK  158  A    between atoms: _357  and  _360
REMARK  159  A    between atoms: _360  and  _361
REMARK  160  A    between atoms: _364  and  _366
REMARK  161  A    between atoms: _366  and  _367
REMARK  162  A    between atoms: _366  and  _369
REMARK  163  A    between atoms: _369  and  _370
REMARK  164  A    between atoms: _370  and  _371
REMARK  165  A    between atoms: _371  and  _372
REMARK  166  A    between atoms: _372  and  _373
REMARK  167  A    between atoms: _378  and  _379
REMARK  168  A    between atoms: _384  and  _386
REMARK  169  A    between atoms: _386  and  _387
REMARK  170  A    between atoms: _386  and  _389
REMARK  171  A    between atoms: _389  and  _390
REMARK  172  A    between atoms: _390  and  _391
REMARK  173  A    between atoms: _396  and  _398
REMARK  174  A    between atoms: _398  and  _399
REMARK  175  A    between atoms: _398  and  _401
REMARK  176  A    between atoms: _401  and  _402
REMARK  177  A    between atoms: _407  and  _409
REMARK  178  A    between atoms: _409  and  _410
REMARK  179  A    between atoms: _409  and  _412
REMARK  180  A    between atoms: _412  and  _413
REMARK  181  A    between atoms: _416  and  _418
REMARK  182  A    between atoms: _418  and  _419
REMARK  183  A    between atoms: _418  and  _421
REMARK  184  A    between atoms: _421  and  _422
REMARK  185  A    between atoms: _425  and  _427
REMARK  186  A    between atoms: _427  and  _428
REMARK  187  A    between atoms: _427  and  _430
REMARK  188  A    between atoms: _430  and  _431
REMARK  189  A    between atoms: _434  and  _436
REMARK  190  A    between atoms: _436  and  _437
REMARK  191  A    between atoms: _436  and  _439
REMARK  192  A    between atoms: _439  and  _440
REMARK  193  A    between atoms: _443  and  _445
REMARK  194  A    between atoms: _445  and  _446
REMARK  195  A    between atoms: _449  and  _451
REMARK  196  A    between atoms: _451  and  _452
REMARK  197  A    between atoms: _451  and  _454
REMARK  198  A    between atoms: _454  and  _455
REMARK  199  A    between atoms: _455  and  _457
REMARK  200  A    between atoms: _457  and  MG_558
REMARK  201  A    between atoms: _458  and  _460
REMARK  202  A    between atoms: _460  and  _461
REMARK  203  A    between atoms: _460  and  _463
REMARK  204  A    between atoms: _463  and  _464
REMARK  205  A    between atoms: _470  and  _472
REMARK  206  A    between atoms: _472  and  _473
REMARK  207  A    between atoms: _472  and  _475
REMARK  208  A    between atoms: _475  and  _476
REMARK  209  A    between atoms: _479  and  _481
REMARK  210  A    between atoms: _481  and  _482
REMARK  211  A    between atoms: _485  and  _487
REMARK  212  A    between atoms: _487  and  _488
REMARK  213  A    between atoms: _487  and  _490
REMARK  214  A    between atoms: _494  and  _495
REMARK  215  A    between atoms: _500  and  _502
REMARK  216  A    between atoms: _502  and  _503
REMARK  217  A    between atoms: _502  and  _505
REMARK  218  A    between atoms: _505  and  _506
REMARK  219  A    between atoms: _509  and  _511
REMARK  220  A    between atoms: _511  and  _512
REMARK  221  A    between atoms: _511  and  _514
REMARK  222  A    between atoms: _514  and  _515
REMARK  223  A    between atoms: _520  and  _521
REMARK  224  A    between atoms: _523  and  _525
REMARK  225  A    between atoms: _525  and  _526
REMARK  226  A    between atoms: _525  and  _528
REMARK  227  A    between atoms: _528  and  _529
REMARK  228  A    between atoms: _529  and  _530
REMARK  229  A    between atoms: _533  and  _535
REMARK  230  A    between atoms: _535  and  _536
REMARK  231  A    between atoms: _535  and  _538
REMARK  232  A    between atoms: _541  and  _543
REMARK  233  A    between atoms: _543  and  _544
REMARK  234  A    between atoms: _543  and  _546
REMARK  235  A    between atoms: _549  and  _551
REMARK  236  A    between atoms: _551  and  _552
REMARK  237  A    between atoms: _551  and  _554
REMARK  238  A    between atoms: _554  and  _555
REMARK                            x       y       z     vdW  Elec       q    Type
REMARK                         _______ _______ _______ _____ _____    ______ ____
ROOT
ATOM      1  O   HOH     1       5.018  21.934  11.289  0.00  0.00    +0.000 OA
ENDROOT
TORSDOF 0
REMARK  Name = ../refined-set-2016/1b38/1b38_pocket.pdb
REMARK  238 active torsions:
REMARK  status: ('A' for Active; 'I' for Inactive)
REMARK    1  A    between atoms: _1  and  _3
REMARK    2  A    between atoms: _3  and  _4
REMARK    3  A    between atoms: _3  and  _6
REMARK    4  A    between atoms: _6  and  _7
REMARK    5  A    between atoms: _7  and  _8
REMARK    6  A    between atoms: _8  and  _9
REMARK    7  A    between atoms: _9  and  _10
REMARK    8  A    between atoms: _14  and  _16
REMARK    9  A    between atoms: _16  and  _17
REMARK   10  A    between atoms: _16  and  _19
REMARK   11  A    between atoms: _19  and  _20
REMARK   12  A    between atoms: _23  and  _25
REMARK   13  A    between atoms: _25  and  _26
REMARK   14  A    between atoms: _28  and  _30
REMARK   15  A    between atoms: _30  and  _31
REMARK   16  A    between atoms: _30  and  _33
REMARK   17  A    between atoms: _33  and  _34
REMARK   18  A    between atoms: _34  and  _35
REMARK   19  A    between atoms: _38  and  _40
REMARK   20  A    between atoms: _40  and  _41
REMARK   21  A    between atoms: _43  and  _45
REMARK   22  A    between atoms: _45  and  _46
REMARK   23  A    between atoms: _45  and  _48
REMARK   24  A    between atoms: _48  and  _49
REMARK   25  A    between atoms: _52  and  _54
REMARK   26  A    between atoms: _54  and  _55
REMARK   27  A    between atoms: _54  and  _57
REMARK   28  A    between atoms: _57  and  _58
REMARK   29  A    between atoms: _63  and  _64
REMARK   30  A    between atoms: _66  and  _68
REMARK   31  A    between atoms: _68  and  _69
REMARK   32  A    between atoms: _71  and  _73
REMARK   33  A    between atoms: _73  and  _74
REMARK   34  A    between atoms: _73  and  _76
REMARK   35  A    between atoms: _79  and  _81
REMARK   36  A    between atoms: _81  and  _82
REMARK   37  A    between atoms: _81  and  _84
REMARK   38  A    between atoms: _87  and  _89
REMARK   39  A    between atoms: _89  and  _90
REMARK   40  A    between atoms: _89  and  _92
REMARK   41  A    between atoms: _92  and  _93
REMARK   42  A    between atoms: _98  and  _99
REMARK   43  A    between atoms: _101  and  _103
REMARK   44  A    between atoms: _103  and  _104
REMARK   45  A    between atoms: _103  and  _106
REMARK   46  A    between atoms: _106  and  _107
REMARK   47  A    between atoms: _107  and  _108
REMARK   48  A    between atoms: _108  and  _109
REMARK   49  A    between atoms: _109  and  _110
REMARK   50  A    between atoms: _114  and  _116
REMARK   51  A    between atoms: _116  and  _117
REMARK   52  A    between atoms: _120  and  _122
REMARK   53  A    between atoms: _122  and  _123
REMARK   54  A    between atoms: _122  and  _125
REMARK   55  A    between atoms: _128  and  _130
REMARK   56  A    between atoms: _130  and  _131
REMARK   57  A    between atoms: _134  and  _136
REMARK   58  A    between atoms: _136  and  _137
REMARK   59  A    between atoms: _136  and  _139
REMARK   60  A    between atoms: _139  and  _140
REMARK   61  A    between atoms: _143  and  _145
REMARK   62  A    between atoms: _145  and  _146
REMARK   63  A    between atoms: _145  and  _148
REMARK   64  A    between atoms: _148  and  _149
REMARK   65  A    between atoms: _149  and  _150
REMARK   66  A    between atoms: _150  and  _151
REMARK   67  A    between atoms: _151  and  _152
REMARK   68  A    between atoms: _156  and  _158
REMARK   69  A    between atoms: _158  and  _159
REMARK   70  A    between atoms: _158  and  _161
REMARK   71  A    between atoms: _161  and  _162
REMARK   72  A    between atoms: _162  and  _163
REMARK   73  A    between atoms: _163  and  _164
REMARK   74  A    between atoms: _164  and  _165
REMARK   75  A    between atoms: _169  and  _171
REMARK   76  A    between atoms: _171  and  _172
REMARK   77  A    between atoms: _171  and  _174
REMARK   78  A    between atoms: _174  and  _175
REMARK   79  A    between atoms: _178  and  _180
REMARK   80  A    between atoms: _180  and  _181
REMARK   81  A    between atoms: _180  and  _183
REMARK   82  A    between atoms: _186  and  _188
REMARK   83  A    between atoms: _188  and  _189
REMARK   84  A    between atoms: _188  and  _191
REMARK   85  A    between atoms: _191  and  _192
REMARK   86  A    between atoms: _192  and  _193
REMARK   87  A    between atoms: _193  and  _194
REMARK   88  A    between atoms: _194  and  _195
REMARK   89  A    between atoms: _199  and  _201
REMARK   90  A    between atoms: _201  and  _202
REMARK   91  A    between atoms: _201  and  _204
REMARK   92  A    between atoms: _204  and  _205
REMARK   93  A    between atoms: _208  and  _210
REMARK   94  A    between atoms: _210  and  _211
REMARK   95  A    between atoms: _210  and  _213
REMARK   96  A    between atoms: _213  and  _214
REMARK   97  A    between atoms: _217  and  _219
REMARK   98  A    between atoms: _219  and  _220
REMARK   99  A    between atoms: _219  and  _222
REMARK  100  A    between atoms: _225  and  _227
REMARK  101  A    between atoms: _227  and  _228
REMARK  102  A    between atoms: _227  and  _230
REMARK  103  A    between atoms: _230  and  _231
REMARK  104  A    between atoms: _237  and  _239
REMARK  105  A    between atoms: _239  and  _240
REMARK  106  A    between atoms: _239  and  _242
REMARK  107  A    between atoms: _242  and  _243
REMARK  108  A    between atoms: _243  and  _244
REMARK  109  A    between atoms: _247  and  _249
REMARK  110  A    between atoms: _249  and  _250
REMARK  111  A    between atoms: _249  and  _252
REMARK  112  A    between atoms: _252  and  _253
REMARK  113  A    between atoms: _259  and  _261
REMARK  114  A    between atoms: _261  and  _262
REMARK  115  A    between atoms: _261  and  _264
REMARK  116  A    between atoms: _264  and  _265
REMARK  117  A    between atoms: _268  and  _270
REMARK  118  A    between atoms: _270  and  _271
REMARK  119  A    between atoms: _270  and  _273
REMARK  120  A    between atoms: _273  and  _274
REMARK  121  A    between atoms: _279  and  _281
REMARK  122  A    between atoms: _281  and  _282
REMARK  123  A    between atoms: _281  and  _284
REMARK  124  A    between atoms: _284  and  _285
REMARK  125  A    between atoms: _285  and  _286
REMARK  126  A    between atoms: _291  and  _293
REMARK  127  A    between atoms: _293  and  _294
REMARK  128  A    between atoms: _293  and  _296
REMARK  129  A    between atoms: _296  and  _297
REMARK  130  A    between atoms: _300  and  _302
REMARK  131  A    between atoms: _302  and  _303
REMARK  132  A    between atoms: _302  and  _305
REMARK  133  A    between atoms: _305  and  _306
REMARK  134  A    between atoms: _309  and  _311
REMARK  135  A    between atoms: _311  and  _312
REMARK  136  A    between atoms: _311  and  _314
REMARK  137  A    between atoms: _314  and  _315
REMARK  138  A    between atoms: _315  and  _316
REMARK  139  A    between atoms: _316  and  _317
REMARK  140  A    between atoms: _317  and  _318
REMARK  141  A    between atoms: _322  and  _324
REMARK  142  A    between atoms: _324  and  _325
REMARK  143  A    between atoms: _324  and  _327
REMARK  144  A    between atoms: _327  and  _328
REMARK  145  A    between atoms: _328  and  _329
REMARK  146  A    between atoms: _329  and  _330
REMARK  147  A    between atoms: _330  and  _331
REMARK  148  A    between atoms: _335  and  _337
REMARK  149  A    between atoms: _337  and  _338
REMARK  150  A    between atoms: _337  and  _340
REMARK  151  A    between atoms: _340  and  _341
REMARK  152  A    between atoms: _346  and  _348
REMARK  153  A    between atoms: _348  and  _349
REMARK  154  A    between atoms: _348  and  _351
REMARK  155  A    between atoms: _351  and  _352
REMARK  156  A    between atoms: _355  and  _357
REMARK  157  A    between atoms: _357  and  _358
REMARK  158  A    between atoms: _357  and  _360
REMARK  159  A    between atoms: _360  and  _361
REMARK  160  A    between atoms: _364  and  _366
REMARK  161  A    between atoms: _366  and  _367
REMARK  162  A    between atoms: _366  and  _369
REMARK  163  A    between atoms: _369  and  _370
REMARK  164  A    between atoms: _370  and  _371
REMARK  165  A    between atoms: _371  and  _372
REMARK  166  A    between atoms: _372  and  _373
REMARK  167  A    between atoms: _378  and  _379
REMARK  168  A    between atoms: _384  and  _386
REMARK  169  A    between atoms: _386  and  _387
REMARK  170  A    between atoms: _386  and  _389
REMARK  171  A    between atoms: _389  and  _390
REMARK  172  A    between atoms: _390  and  _391
REMARK  173  A    between atoms: _396  and  _398
REMARK  174  A    between atoms: _398  and  _399
REMARK  175  A    between atoms: _398  and  _401
REMARK  176  A    between atoms: _401  and  _402
REMARK  177  A    between atoms: _407  and  _409
REMARK  178  A    between atoms: _409  and  _410
REMARK  179  A    between atoms: _409  and  _412
REMARK  180  A    between atoms: _412  and  _413
REMARK  181  A    between atoms: _416  and  _418
REMARK  182  A    between atoms: _418  and  _419
REMARK  183  A    between atoms: _418  and  _421
REMARK  184  A    between atoms: _421  and  _422
REMARK  185  A    between atoms: _425  and  _427
REMARK  186  A    between atoms: _427  and  _428
REMARK  187  A    between atoms: _427  and  _430
REMARK  188  A    between atoms: _430  and  _431
REMARK  189  A    between atoms: _434  and  _436
REMARK  190  A    between atoms: _436  and  _437
REMARK  191  A    between atoms: _436  and  _439
REMARK  192  A    between atoms: _439  and  _440
REMARK  193  A    between atoms: _443  and  _445
REMARK  194  A    between atoms: _445  and  _446
REMARK  195  A    between atoms: _449  and  _451
REMARK  196  A    between atoms: _451  and  _452
REMARK  197  A    between atoms: _451  and  _454
REMARK  198  A    between atoms: _454  and  _455
REMARK  199  A    between atoms: _455  and  _457
REMARK  200  A    between atoms: _457  and  MG_558
REMARK  201  A    between atoms: _458  and  _460
REMARK  202  A    between atoms: _460  and  _461
REMARK  203  A    between atoms: _460  and  _463
REMARK  204  A    between atoms: _463  and  _464
REMARK  205  A    between atoms: _470  and  _472
REMARK  206  A    between atoms: _472  and  _473
REMARK  207  A    between atoms: _472  and  _475
REMARK  208  A    between atoms: _475  and  _476
REMARK  209  A    between atoms: _479  and  _481
REMARK  210  A    between atoms: _481  and  _482
REMARK  211  A    between atoms: _485  and  _487
REMARK  212  A    between atoms: _487  and  _488
REMARK  213  A    between atoms: _487  and  _490
REMARK  214  A    between atoms: _494  and  _495
REMARK  215  A    between atoms: _500  and  _502
REMARK  216  A    between atoms: _502  and  _503
REMARK  217  A    between atoms: _502  and  _505
REMARK  218  A    between atoms: _505  and  _506
REMARK  219  A    between atoms: _509  and  _511
REMARK  220  A    between atoms: _511  and  _512
REMARK  221  A    between atoms: _511  and  _514
REMARK  222  A    between atoms: _514  and  _515
REMARK  223  A    between atoms: _520  and  _521
REMARK  224  A    between atoms: _523  and  _525
REMARK  225  A    between atoms: _525  and  _526
REMARK  226  A    between atoms: _525  and  _528
REMARK  227  A    between atoms: _528  and  _529
REMARK  228  A    between atoms: _529  and  _530
REMARK  229  A    between atoms: _533  and  _535
REMARK  230  A    between atoms: _535  and  _536
REMARK  231  A    between atoms: _535  and  _538
REMARK  232  A    between atoms: _541  and  _543
REMARK  233  A    between atoms: _543  and  _544
REMARK  234  A    between atoms: _543  and  _546
REMARK  235  A    between atoms: _549  and  _551
REMARK  236  A    between atoms: _551  and  _552
REMARK  237  A    between atoms: _551  and  _554
REMARK  238  A    between atoms: _554  and  _555
REMARK                            x       y       z     vdW  Elec       q    Type
REMARK                         _______ _______ _______ _____ _____    ______ ____
ROOT
ATOM      1  O   HOH     1       8.158  27.720   2.314  0.00  0.00    +0.000 OA
ENDROOT
TORSDOF 0
REMARK  Name = ../refined-set-2016/1b38/1b38_pocket.pdb
REMARK  238 active torsions:
REMARK  status: ('A' for Active; 'I' for Inactive)
REMARK    1  A    between atoms: _1  and  _3
REMARK    2  A    between atoms: _3  and  _4
REMARK    3  A    between atoms: _3  and  _6
REMARK    4  A    between atoms: _6  and  _7
REMARK    5  A    between atoms: _7  and  _8
REMARK    6  A    between atoms: _8  and  _9
REMARK    7  A    between atoms: _9  and  _10
REMARK    8  A    between atoms: _14  and  _16
REMARK    9  A    between atoms: _16  and  _17
REMARK   10  A    between atoms: _16  and  _19
REMARK   11  A    between atoms: _19  and  _20
REMARK   12  A    between atoms: _23  and  _25
REMARK   13  A    between atoms: _25  and  _26
REMARK   14  A    between atoms: _28  and  _30
REMARK   15  A    between atoms: _30  and  _31
REMARK   16  A    between atoms: _30  and  _33
REMARK   17  A    between atoms: _33  and  _34
REMARK   18  A    between atoms: _34  and  _35
REMARK   19  A    between atoms: _38  and  _40
REMARK   20  A    between atoms: _40  and  _41
REMARK   21  A    between atoms: _43  and  _45
REMARK   22  A    between atoms: _45  and  _46
REMARK   23  A    between atoms: _45  and  _48
REMARK   24  A    between atoms: _48  and  _49
REMARK   25  A    between atoms: _52  and  _54
REMARK   26  A    between atoms: _54  and  _55
REMARK   27  A    between atoms: _54  and  _57
REMARK   28  A    between atoms: _57  and  _58
REMARK   29  A    between atoms: _63  and  _64
REMARK   30  A    between atoms: _66  and  _68
REMARK   31  A    between atoms: _68  and  _69
REMARK   32  A    between atoms: _71  and  _73
REMARK   33  A    between atoms: _73  and  _74
REMARK   34  A    between atoms: _73  and  _76
REMARK   35  A    between atoms: _79  and  _81
REMARK   36  A    between atoms: _81  and  _82
REMARK   37  A    between atoms: _81  and  _84
REMARK   38  A    between atoms: _87  and  _89
REMARK   39  A    between atoms: _89  and  _90
REMARK   40  A    between atoms: _89  and  _92
REMARK   41  A    between atoms: _92  and  _93
REMARK   42  A    between atoms: _98  and  _99
REMARK   43  A    between atoms: _101  and  _103
REMARK   44  A    between atoms: _103  and  _104
REMARK   45  A    between atoms: _103  and  _106
REMARK   46  A    between atoms: _106  and  _107
REMARK   47  A    between atoms: _107  and  _108
REMARK   48  A    between atoms: _108  and  _109
REMARK   49  A    between atoms: _109  and  _110
REMARK   50  A    between atoms: _114  and  _116
REMARK   51  A    between atoms: _116  and  _117
REMARK   52  A    between atoms: _120  and  _122
REMARK   53  A    between atoms: _122  and  _123
REMARK   54  A    between atoms: _122  and  _125
REMARK   55  A    between atoms: _128  and  _130
REMARK   56  A    between atoms: _130  and  _131
REMARK   57  A    between atoms: _134  and  _136
REMARK   58  A    between atoms: _136  and  _137
REMARK   59  A    between atoms: _136  and  _139
REMARK   60  A    between atoms: _139  and  _140
REMARK   61  A    between atoms: _143  and  _145
REMARK   62  A    between atoms: _145  and  _146
REMARK   63  A    between atoms: _145  and  _148
REMARK   64  A    between atoms: _148  and  _149
REMARK   65  A    between atoms: _149  and  _150
REMARK   66  A    between atoms: _150  and  _151
REMARK   67  A    between atoms: _151  and  _152
REMARK   68  A    between atoms: _156  and  _158
REMARK   69  A    between atoms: _158  and  _159
REMARK   70  A    between atoms: _158  and  _161
REMARK   71  A    between atoms: _161  and  _162
REMARK   72  A    between atoms: _162  and  _163
REMARK   73  A    between atoms: _163  and  _164
REMARK   74  A    between atoms: _164  and  _165
REMARK   75  A    between atoms: _169  and  _171
REMARK   76  A    between atoms: _171  and  _172
REMARK   77  A    between atoms: _171  and  _174
REMARK   78  A    between atoms: _174  and  _175
REMARK   79  A    between atoms: _178  and  _180
REMARK   80  A    between atoms: _180  and  _181
REMARK   81  A    between atoms: _180  and  _183
REMARK   82  A    between atoms: _186  and  _188
REMARK   83  A    between atoms: _188  and  _189
REMARK   84  A    between atoms: _188  and  _191
REMARK   85  A    between atoms: _191  and  _192
REMARK   86  A    between atoms: _192  and  _193
REMARK   87  A    between atoms: _193  and  _194
REMARK   88  A    between atoms: _194  and  _195
REMARK   89  A    between atoms: _199  and  _201
REMARK   90  A    between atoms: _201  and  _202
REMARK   91  A    between atoms: _201  and  _204
REMARK   92  A    between atoms: _204  and  _205
REMARK   93  A    between atoms: _208  and  _210
REMARK   94  A    between atoms: _210  and  _211
REMARK   95  A    between atoms: _210  and  _213
REMARK   96  A    between atoms: _213  and  _214
REMARK   97  A    between atoms: _217  and  _219
REMARK   98  A    between atoms: _219  and  _220
REMARK   99  A    between atoms: _219  and  _222
REMARK  100  A    between atoms: _225  and  _227
REMARK  101  A    between atoms: _227  and  _228
REMARK  102  A    between atoms: _227  and  _230
REMARK  103  A    between atoms: _230  and  _231
REMARK  104  A    between atoms: _237  and  _239
REMARK  105  A    between atoms: _239  and  _240
REMARK  106  A    between atoms: _239  and  _242
REMARK  107  A    between atoms: _242  and  _243
REMARK  108  A    between atoms: _243  and  _244
REMARK  109  A    between atoms: _247  and  _249
REMARK  110  A    between atoms: _249  and  _250
REMARK  111  A    between atoms: _249  and  _252
REMARK  112  A    between atoms: _252  and  _253
REMARK  113  A    between atoms: _259  and  _261
REMARK  114  A    between atoms: _261  and  _262
REMARK  115  A    between atoms: _261  and  _264
REMARK  116  A    between atoms: _264  and  _265
REMARK  117  A    between atoms: _268  and  _270
REMARK  118  A    between atoms: _270  and  _271
REMARK  119  A    between atoms: _270  and  _273
REMARK  120  A    between atoms: _273  and  _274
REMARK  121  A    between atoms: _279  and  _281
REMARK  122  A    between atoms: _281  and  _282
REMARK  123  A    between atoms: _281  and  _284
REMARK  124  A    between atoms: _284  and  _285
REMARK  125  A    between atoms: _285  and  _286
REMARK  126  A    between atoms: _291  and  _293
REMARK  127  A    between atoms: _293  and  _294
REMARK  128  A    between atoms: _293  and  _296
REMARK  129  A    between atoms: _296  and  _297
REMARK  130  A    between atoms: _300  and  _302
REMARK  131  A    between atoms: _302  and  _303
REMARK  132  A    between atoms: _302  and  _305
REMARK  133  A    between atoms: _305  and  _306
REMARK  134  A    between atoms: _309  and  _311
REMARK  135  A    between atoms: _311  and  _312
REMARK  136  A    between atoms: _311  and  _314
REMARK  137  A    between atoms: _314  and  _315
REMARK  138  A    between atoms: _315  and  _316
REMARK  139  A    between atoms: _316  and  _317
REMARK  140  A    between atoms: _317  and  _318
REMARK  141  A    between atoms: _322  and  _324
REMARK  142  A    between atoms: _324  and  _325
REMARK  143  A    between atoms: _324  and  _327
REMARK  144  A    between atoms: _327  and  _328
REMARK  145  A    between atoms: _328  and  _329
REMARK  146  A    between atoms: _329  and  _330
REMARK  147  A    between atoms: _330  and  _331
REMARK  148  A    between atoms: _335  and  _337
REMARK  149  A    between atoms: _337  and  _338
REMARK  150  A    between atoms: _337  and  _340
REMARK  151  A    between atoms: _340  and  _341
REMARK  152  A    between atoms: _346  and  _348
REMARK  153  A    between atoms: _348  and  _349
REMARK  154  A    between atoms: _348  and  _351
REMARK  155  A    between atoms: _351  and  _352
REMARK  156  A    between atoms: _355  and  _357
REMARK  157  A    between atoms: _357  and  _358
REMARK  158  A    between atoms: _357  and  _360
REMARK  159  A    between atoms: _360  and  _361
REMARK  160  A    between atoms: _364  and  _366
REMARK  161  A    between atoms: _366  and  _367
REMARK  162  A    between atoms: _366  and  _369
REMARK  163  A    between atoms: _369  and  _370
REMARK  164  A    between atoms: _370  and  _371
REMARK  165  A    between atoms: _371  and  _372
REMARK  166  A    between atoms: _372  and  _373
REMARK  167  A    between atoms: _378  and  _379
REMARK  168  A    between atoms: _384  and  _386
REMARK  169  A    between atoms: _386  and  _387
REMARK  170  A    between atoms: _386  and  _389
REMARK  171  A    between atoms: _389  and  _390
REMARK  172  A    between atoms: _390  and  _391
REMARK  173  A    between atoms: _396  and  _398
REMARK  174  A    between atoms: _398  and  _399
REMARK  175  A    between atoms: _398  and  _401
REMARK  176  A    between atoms: _401  and  _402
REMARK  177  A    between atoms: _407  and  _409
REMARK  178  A    between atoms: _409  and  _410
REMARK  179  A    between atoms: _409  and  _412
REMARK  180  A    between atoms: _412  and  _413
REMARK  181  A    between atoms: _416  and  _418
REMARK  182  A    between atoms: _418  and  _419
REMARK  183  A    between atoms: _418  and  _421
REMARK  184  A    between atoms: _421  and  _422
REMARK  185  A    between atoms: _425  and  _427
REMARK  186  A    between atoms: _427  and  _428
REMARK  187  A    between atoms: _427  and  _430
REMARK  188  A    between atoms: _430  and  _431
REMARK  189  A    between atoms: _434  and  _436
REMARK  190  A    between atoms: _436  and  _437
REMARK  191  A    between atoms: _436  and  _439
REMARK  192  A    between atoms: _439  and  _440
REMARK  193  A    between atoms: _443  and  _445
REMARK  194  A    between atoms: _445  and  _446
REMARK  195  A    between atoms: _449  and  _451
REMARK  196  A    between atoms: _451  and  _452
REMARK  197  A    between atoms: _451  and  _454
REMARK  198  A    between atoms: _454  and  _455
REMARK  199  A    between atoms: _455  and  _457
REMARK  200  A    between atoms: _457  and  MG_558
REMARK  201  A    between atoms: _458  and  _460
REMARK  202  A    between atoms: _460  and  _461
REMARK  203  A    between atoms: _460  and  _463
REMARK  204  A    between atoms: _463  and  _464
REMARK  205  A    between atoms: _470  and  _472
REMARK  206  A    between atoms: _472  and  _473
REMARK  207  A    between atoms: _472  and  _475
REMARK  208  A    between atoms: _475  and  _476
REMARK  209  A    between atoms: _479  and  _481
REMARK  210  A    between atoms: _481  and  _482
REMARK  211  A    between atoms: _485  and  _487
REMARK  212  A    between atoms: _487  and  _488
REMARK  213  A    between atoms: _487  and  _490
REMARK  214  A    between atoms: _494  and  _495
REMARK  215  A    between atoms: _500  and  _502
REMARK  216  A    between atoms: _502  and  _503
REMARK  217  A    between atoms: _502  and  _505
REMARK  218  A    between atoms: _505  and  _506
REMARK  219  A    between atoms: _509  and  _511
REMARK  220  A    between atoms: _511  and  _512
REMARK  221  A    between atoms: _511  and  _514
REMARK  222  A    between atoms: _514  and  _515
REMARK  223  A    between atoms: _520  and  _521
REMARK  224  A    between atoms: _523  and  _525
REMARK  225  A    between atoms: _525  and  _526
REMARK  226  A    between atoms: _525  and  _528
REMARK  227  A    between atoms: _528  and  _529
REMARK  228  A    between atoms: _529  and  _530
REMARK  229  A    between atoms: _533  and  _535
REMARK  230  A    between atoms: _535  and  _536
REMARK  231  A    between atoms: _535  and  _538
REMARK  232  A    between atoms: _541  and  _543
REMARK  233  A    between atoms: _543  and  _544
REMARK  234  A    between atoms: _543  and  _546
REMARK  235  A    between atoms: _549  and  _551
REMARK  236  A    between atoms: _551  and  _552
REMARK  237  A    between atoms: _551  and  _554
REMARK  238  A    between atoms: _554  and  _555
REMARK                            x       y       z     vdW  Elec       q    Type
REMARK                         _______ _______ _______ _____ _____    ______ ____
ROOT
ATOM      1  O   HOH     1       5.388  26.602   4.804  0.00  0.00    +0.000 OA
ENDROOT
TORSDOF 0
REMARK  Name = ../refined-set-2016/1b38/1b38_pocket.pdb
REMARK  238 active torsions:
REMARK  status: ('A' for Active; 'I' for Inactive)
REMARK    1  A    between atoms: _1  and  _3
REMARK    2  A    between atoms: _3  and  _4
REMARK    3  A    between atoms: _3  and  _6
REMARK    4  A    between atoms: _6  and  _7
REMARK    5  A    between atoms: _7  and  _8
REMARK    6  A    between atoms: _8  and  _9
REMARK    7  A    between atoms: _9  and  _10
REMARK    8  A    between atoms: _14  and  _16
REMARK    9  A    between atoms: _16  and  _17
REMARK   10  A    between atoms: _16  and  _19
REMARK   11  A    between atoms: _19  and  _20
REMARK   12  A    between atoms: _23  and  _25
REMARK   13  A    between atoms: _25  and  _26
REMARK   14  A    between atoms: _28  and  _30
REMARK   15  A    between atoms: _30  and  _31
REMARK   16  A    between atoms: _30  and  _33
REMARK   17  A    between atoms: _33  and  _34
REMARK   18  A    between atoms: _34  and  _35
REMARK   19  A    between atoms: _38  and  _40
REMARK   20  A    between atoms: _40  and  _41
REMARK   21  A    between atoms: _43  and  _45
REMARK   22  A    between atoms: _45  and  _46
REMARK   23  A    between atoms: _45  and  _48
REMARK   24  A    between atoms: _48  and  _49
REMARK   25  A    between atoms: _52  and  _54
REMARK   26  A    between atoms: _54  and  _55
REMARK   27  A    between atoms: _54  and  _57
REMARK   28  A    between atoms: _57  and  _58
REMARK   29  A    between atoms: _63  and  _64
REMARK   30  A    between atoms: _66  and  _68
REMARK   31  A    between atoms: _68  and  _69
REMARK   32  A    between atoms: _71  and  _73
REMARK   33  A    between atoms: _73  and  _74
REMARK   34  A    between atoms: _73  and  _76
REMARK   35  A    between atoms: _79  and  _81
REMARK   36  A    between atoms: _81  and  _82
REMARK   37  A    between atoms: _81  and  _84
REMARK   38  A    between atoms: _87  and  _89
REMARK   39  A    between atoms: _89  and  _90
REMARK   40  A    between atoms: _89  and  _92
REMARK   41  A    between atoms: _92  and  _93
REMARK   42  A    between atoms: _98  and  _99
REMARK   43  A    between atoms: _101  and  _103
REMARK   44  A    between atoms: _103  and  _104
REMARK   45  A    between atoms: _103  and  _106
REMARK   46  A    between atoms: _106  and  _107
REMARK   47  A    between atoms: _107  and  _108
REMARK   48  A    between atoms: _108  and  _109
REMARK   49  A    between atoms: _109  and  _110
REMARK   50  A    between atoms: _114  and  _116
REMARK   51  A    between atoms: _116  and  _117
REMARK   52  A    between atoms: _120  and  _122
REMARK   53  A    between atoms: _122  and  _123
REMARK   54  A    between atoms: _122  and  _125
REMARK   55  A    between atoms: _128  and  _130
REMARK   56  A    between atoms: _130  and  _131
REMARK   57  A    between atoms: _134  and  _136
REMARK   58  A    between atoms: _136  and  _137
REMARK   59  A    between atoms: _136  and  _139
REMARK   60  A    between atoms: _139  and  _140
REMARK   61  A    between atoms: _143  and  _145
REMARK   62  A    between atoms: _145  and  _146
REMARK   63  A    between atoms: _145  and  _148
REMARK   64  A    between atoms: _148  and  _149
REMARK   65  A    between atoms: _149  and  _150
REMARK   66  A    between atoms: _150  and  _151
REMARK   67  A    between atoms: _151  and  _152
REMARK   68  A    between atoms: _156  and  _158
REMARK   69  A    between atoms: _158  and  _159
REMARK   70  A    between atoms: _158  and  _161
REMARK   71  A    between atoms: _161  and  _162
REMARK   72  A    between atoms: _162  and  _163
REMARK   73  A    between atoms: _163  and  _164
REMARK   74  A    between atoms: _164  and  _165
REMARK   75  A    between atoms: _169  and  _171
REMARK   76  A    between atoms: _171  and  _172
REMARK   77  A    between atoms: _171  and  _174
REMARK   78  A    between atoms: _174  and  _175
REMARK   79  A    between atoms: _178  and  _180
REMARK   80  A    between atoms: _180  and  _181
REMARK   81  A    between atoms: _180  and  _183
REMARK   82  A    between atoms: _186  and  _188
REMARK   83  A    between atoms: _188  and  _189
REMARK   84  A    between atoms: _188  and  _191
REMARK   85  A    between atoms: _191  and  _192
REMARK   86  A    between atoms: _192  and  _193
REMARK   87  A    between atoms: _193  and  _194
REMARK   88  A    between atoms: _194  and  _195
REMARK   89  A    between atoms: _199  and  _201
REMARK   90  A    between atoms: _201  and  _202
REMARK   91  A    between atoms: _201  and  _204
REMARK   92  A    between atoms: _204  and  _205
REMARK   93  A    between atoms: _208  and  _210
REMARK   94  A    between atoms: _210  and  _211
REMARK   95  A    between atoms: _210  and  _213
REMARK   96  A    between atoms: _213  and  _214
REMARK   97  A    between atoms: _217  and  _219
REMARK   98  A    between atoms: _219  and  _220
REMARK   99  A    between atoms: _219  and  _222
REMARK  100  A    between atoms: _225  and  _227
REMARK  101  A    between atoms: _227  and  _228
REMARK  102  A    between atoms: _227  and  _230
REMARK  103  A    between atoms: _230  and  _231
REMARK  104  A    between atoms: _237  and  _239
REMARK  105  A    between atoms: _239  and  _240
REMARK  106  A    between atoms: _239  and  _242
REMARK  107  A    between atoms: _242  and  _243
REMARK  108  A    between atoms: _243  and  _244
REMARK  109  A    between atoms: _247  and  _249
REMARK  110  A    between atoms: _249  and  _250
REMARK  111  A    between atoms: _249  and  _252
REMARK  112  A    between atoms: _252  and  _253
REMARK  113  A    between atoms: _259  and  _261
REMARK  114  A    between atoms: _261  and  _262
REMARK  115  A    between atoms: _261  and  _264
REMARK  116  A    between atoms: _264  and  _265
REMARK  117  A    between atoms: _268  and  _270
REMARK  118  A    between atoms: _270  and  _271
REMARK  119  A    between atoms: _270  and  _273
REMARK  120  A    between atoms: _273  and  _274
REMARK  121  A    between atoms: _279  and  _281
REMARK  122  A    between atoms: _281  and  _282
REMARK  123  A    between atoms: _281  and  _284
REMARK  124  A    between atoms: _284  and  _285
REMARK  125  A    between atoms: _285  and  _286
REMARK  126  A    between atoms: _291  and  _293
REMARK  127  A    between atoms: _293  and  _294
REMARK  128  A    between atoms: _293  and  _296
REMARK  129  A    between atoms: _296  and  _297
REMARK  130  A    between atoms: _300  and  _302
REMARK  131  A    between atoms: _302  and  _303
REMARK  132  A    between atoms: _302  and  _305
REMARK  133  A    between atoms: _305  and  _306
REMARK  134  A    between atoms: _309  and  _311
REMARK  135  A    between atoms: _311  and  _312
REMARK  136  A    between atoms: _311  and  _314
REMARK  137  A    between atoms: _314  and  _315
REMARK  138  A    between atoms: _315  and  _316
REMARK  139  A    between atoms: _316  and  _317
REMARK  140  A    between atoms: _317  and  _318
REMARK  141  A    between atoms: _322  and  _324
REMARK  142  A    between atoms: _324  and  _325
REMARK  143  A    between atoms: _324  and  _327
REMARK  144  A    between atoms: _327  and  _328
REMARK  145  A    between atoms: _328  and  _329
REMARK  146  A    between atoms: _329  and  _330
REMARK  147  A    between atoms: _330  and  _331
REMARK  148  A    between atoms: _335  and  _337
REMARK  149  A    between atoms: _337  and  _338
REMARK  150  A    between atoms: _337  and  _340
REMARK  151  A    between atoms: _340  and  _341
REMARK  152  A    between atoms: _346  and  _348
REMARK  153  A    between atoms: _348  and  _349
REMARK  154  A    between atoms: _348  and  _351
REMARK  155  A    between atoms: _351  and  _352
REMARK  156  A    between atoms: _355  and  _357
REMARK  157  A    between atoms: _357  and  _358
REMARK  158  A    between atoms: _357  and  _360
REMARK  159  A    between atoms: _360  and  _361
REMARK  160  A    between atoms: _364  and  _366
REMARK  161  A    between atoms: _366  and  _367
REMARK  162  A    between atoms: _366  and  _369
REMARK  163  A    between atoms: _369  and  _370
REMARK  164  A    between atoms: _370  and  _371
REMARK  165  A    between atoms: _371  and  _372
REMARK  166  A    between atoms: _372  and  _373
REMARK  167  A    between atoms: _378  and  _379
REMARK  168  A    between atoms: _384  and  _386
REMARK  169  A    between atoms: _386  and  _387
REMARK  170  A    between atoms: _386  and  _389
REMARK  171  A    between atoms: _389  and  _390
REMARK  172  A    between atoms: _390  and  _391
REMARK  173  A    between atoms: _396  and  _398
REMARK  174  A    between atoms: _398  and  _399
REMARK  175  A    between atoms: _398  and  _401
REMARK  176  A    between atoms: _401  and  _402
REMARK  177  A    between atoms: _407  and  _409
REMARK  178  A    between atoms: _409  and  _410
REMARK  179  A    between atoms: _409  and  _412
REMARK  180  A    between atoms: _412  and  _413
REMARK  181  A    between atoms: _416  and  _418
REMARK  182  A    between atoms: _418  and  _419
REMARK  183  A    between atoms: _418  and  _421
REMARK  184  A    between atoms: _421  and  _422
REMARK  185  A    between atoms: _425  and  _427
REMARK  186  A    between atoms: _427  and  _428
REMARK  187  A    between atoms: _427  and  _430
REMARK  188  A    between atoms: _430  and  _431
REMARK  189  A    between atoms: _434  and  _436
REMARK  190  A    between atoms: _436  and  _437
REMARK  191  A    between atoms: _436  and  _439
REMARK  192  A    between atoms: _439  and  _440
REMARK  193  A    between atoms: _443  and  _445
REMARK  194  A    between atoms: _445  and  _446
REMARK  195  A    between atoms: _449  and  _451
REMARK  196  A    between atoms: _451  and  _452
REMARK  197  A    between atoms: _451  and  _454
REMARK  198  A    between atoms: _454  and  _455
REMARK  199  A    between atoms: _455  and  _457
REMARK  200  A    between atoms: _457  and  MG_558
REMARK  201  A    between atoms: _458  and  _460
REMARK  202  A    between atoms: _460  and  _461
REMARK  203  A    between atoms: _460  and  _463
REMARK  204  A    between atoms: _463  and  _464
REMARK  205  A    between atoms: _470  and  _472
REMARK  206  A    between atoms: _472  and  _473
REMARK  207  A    between atoms: _472  and  _475
REMARK  208  A    between atoms: _475  and  _476
REMARK  209  A    between atoms: _479  and  _481
REMARK  210  A    between atoms: _481  and  _482
REMARK  211  A    between atoms: _485  and  _487
REMARK  212  A    between atoms: _487  and  _488
REMARK  213  A    between atoms: _487  and  _490
REMARK  214  A    between atoms: _494  and  _495
REMARK  215  A    between atoms: _500  and  _502
REMARK  216  A    between atoms: _502  and  _503
REMARK  217  A    between atoms: _502  and  _505
REMARK  218  A    between atoms: _505  and  _506
REMARK  219  A    between atoms: _509  and  _511
REMARK  220  A    between atoms: _511  and  _512
REMARK  221  A    between atoms: _511  and  _514
REMARK  222  A    between atoms: _514  and  _515
REMARK  223  A    between atoms: _520  and  _521
REMARK  224  A    between atoms: _523  and  _525
REMARK  225  A    between atoms: _525  and  _526
REMARK  226  A    between atoms: _525  and  _528
REMARK  227  A    between atoms: _528  and  _529
REMARK  228  A    between atoms: _529  and  _530
REMARK  229  A    between atoms: _533  and  _535
REMARK  230  A    between atoms: _535  and  _536
REMARK  231  A    between atoms: _535  and  _538
REMARK  232  A    between atoms: _541  and  _543
REMARK  233  A    between atoms: _543  and  _544
REMARK  234  A    between atoms: _543  and  _546
REMARK  235  A    between atoms: _549  and  _551
REMARK  236  A    between atoms: _551  and  _552
REMARK  237  A    between atoms: _551  and  _554
REMARK  238  A    between atoms: _554  and  _555
REMARK                            x       y       z     vdW  Elec       q    Type
REMARK                         _______ _______ _______ _____ _____    ______ ____
ROOT
ATOM      1  O   HOH     1      -6.238  23.108  20.596  0.00  0.00    +0.000 OA
ENDROOT
TORSDOF 0
REMARK  Name = ../refined-set-2016/1b38/1b38_pocket.pdb
REMARK  238 active torsions:
REMARK  status: ('A' for Active; 'I' for Inactive)
REMARK    1  A    between atoms: _1  and  _3
REMARK    2  A    between atoms: _3  and  _4
REMARK    3  A    between atoms: _3  and  _6
REMARK    4  A    between atoms: _6  and  _7
REMARK    5  A    between atoms: _7  and  _8
REMARK    6  A    between atoms: _8  and  _9
REMARK    7  A    between atoms: _9  and  _10
REMARK    8  A    between atoms: _14  and  _16
REMARK    9  A    between atoms: _16  and  _17
REMARK   10  A    between atoms: _16  and  _19
REMARK   11  A    between atoms: _19  and  _20
REMARK   12  A    between atoms: _23  and  _25
REMARK   13  A    between atoms: _25  and  _26
REMARK   14  A    between atoms: _28  and  _30
REMARK   15  A    between atoms: _30  and  _31
REMARK   16  A    between atoms: _30  and  _33
REMARK   17  A    between atoms: _33  and  _34
REMARK   18  A    between atoms: _34  and  _35
REMARK   19  A    between atoms: _38  and  _40
REMARK   20  A    between atoms: _40  and  _41
REMARK   21  A    between atoms: _43  and  _45
REMARK   22  A    between atoms: _45  and  _46
REMARK   23  A    between atoms: _45  and  _48
REMARK   24  A    between atoms: _48  and  _49
REMARK   25  A    between atoms: _52  and  _54
REMARK   26  A    between atoms: _54  and  _55
REMARK   27  A    between atoms: _54  and  _57
REMARK   28  A    between atoms: _57  and  _58
REMARK   29  A    between atoms: _63  and  _64
REMARK   30  A    between atoms: _66  and  _68
REMARK   31  A    between atoms: _68  and  _69
REMARK   32  A    between atoms: _71  and  _73
REMARK   33  A    between atoms: _73  and  _74
REMARK   34  A    between atoms: _73  and  _76
REMARK   35  A    between atoms: _79  and  _81
REMARK   36  A    between atoms: _81  and  _82
REMARK   37  A    between atoms: _81  and  _84
REMARK   38  A    between atoms: _87  and  _89
REMARK   39  A    between atoms: _89  and  _90
REMARK   40  A    between atoms: _89  and  _92
REMARK   41  A    between atoms: _92  and  _93
REMARK   42  A    between atoms: _98  and  _99
REMARK   43  A    between atoms: _101  and  _103
REMARK   44  A    between atoms: _103  and  _104
REMARK   45  A    between atoms: _103  and  _106
REMARK   46  A    between atoms: _106  and  _107
REMARK   47  A    between atoms: _107  and  _108
REMARK   48  A    between atoms: _108  and  _109
REMARK   49  A    between atoms: _109  and  _110
REMARK   50  A    between atoms: _114  and  _116
REMARK   51  A    between atoms: _116  and  _117
REMARK   52  A    between atoms: _120  and  _122
REMARK   53  A    between atoms: _122  and  _123
REMARK   54  A    between atoms: _122  and  _125
REMARK   55  A    between atoms: _128  and  _130
REMARK   56  A    between atoms: _130  and  _131
REMARK   57  A    between atoms: _134  and  _136
REMARK   58  A    between atoms: _136  and  _137
REMARK   59  A    between atoms: _136  and  _139
REMARK   60  A    between atoms: _139  and  _140
REMARK   61  A    between atoms: _143  and  _145
REMARK   62  A    between atoms: _145  and  _146
REMARK   63  A    between atoms: _145  and  _148
REMARK   64  A    between atoms: _148  and  _149
REMARK   65  A    between atoms: _149  and  _150
REMARK   66  A    between atoms: _150  and  _151
REMARK   67  A    between atoms: _151  and  _152
REMARK   68  A    between atoms: _156  and  _158
REMARK   69  A    between atoms: _158  and  _159
REMARK   70  A    between atoms: _158  and  _161
REMARK   71  A    between atoms: _161  and  _162
REMARK   72  A    between atoms: _162  and  _163
REMARK   73  A    between atoms: _163  and  _164
REMARK   74  A    between atoms: _164  and  _165
REMARK   75  A    between atoms: _169  and  _171
REMARK   76  A    between atoms: _171  and  _172
REMARK   77  A    between atoms: _171  and  _174
REMARK   78  A    between atoms: _174  and  _175
REMARK   79  A    between atoms: _178  and  _180
REMARK   80  A    between atoms: _180  and  _181
REMARK   81  A    between atoms: _180  and  _183
REMARK   82  A    between atoms: _186  and  _188
REMARK   83  A    between atoms: _188  and  _189
REMARK   84  A    between atoms: _188  and  _191
REMARK   85  A    between atoms: _191  and  _192
REMARK   86  A    between atoms: _192  and  _193
REMARK   87  A    between atoms: _193  and  _194
REMARK   88  A    between atoms: _194  and  _195
REMARK   89  A    between atoms: _199  and  _201
REMARK   90  A    between atoms: _201  and  _202
REMARK   91  A    between atoms: _201  and  _204
REMARK   92  A    between atoms: _204  and  _205
REMARK   93  A    between atoms: _208  and  _210
REMARK   94  A    between atoms: _210  and  _211
REMARK   95  A    between atoms: _210  and  _213
REMARK   96  A    between atoms: _213  and  _214
REMARK   97  A    between atoms: _217  and  _219
REMARK   98  A    between atoms: _219  and  _220
REMARK   99  A    between atoms: _219  and  _222
REMARK  100  A    between atoms: _225  and  _227
REMARK  101  A    between atoms: _227  and  _228
REMARK  102  A    between atoms: _227  and  _230
REMARK  103  A    between atoms: _230  and  _231
REMARK  104  A    between atoms: _237  and  _239
REMARK  105  A    between atoms: _239  and  _240
REMARK  106  A    between atoms: _239  and  _242
REMARK  107  A    between atoms: _242  and  _243
REMARK  108  A    between atoms: _243  and  _244
REMARK  109  A    between atoms: _247  and  _249
REMARK  110  A    between atoms: _249  and  _250
REMARK  111  A    between atoms: _249  and  _252
REMARK  112  A    between atoms: _252  and  _253
REMARK  113  A    between atoms: _259  and  _261
REMARK  114  A    between atoms: _261  and  _262
REMARK  115  A    between atoms: _261  and  _264
REMARK  116  A    between atoms: _264  and  _265
REMARK  117  A    between atoms: _268  and  _270
REMARK  118  A    between atoms: _270  and  _271
REMARK  119  A    between atoms: _270  and  _273
REMARK  120  A    between atoms: _273  and  _274
REMARK  121  A    between atoms: _279  and  _281
REMARK  122  A    between atoms: _281  and  _282
REMARK  123  A    between atoms: _281  and  _284
REMARK  124  A    between atoms: _284  and  _285
REMARK  125  A    between atoms: _285  and  _286
REMARK  126  A    between atoms: _291  and  _293
REMARK  127  A    between atoms: _293  and  _294
REMARK  128  A    between atoms: _293  and  _296
REMARK  129  A    between atoms: _296  and  _297
REMARK  130  A    between atoms: _300  and  _302
REMARK  131  A    between atoms: _302  and  _303
REMARK  132  A    between atoms: _302  and  _305
REMARK  133  A    between atoms: _305  and  _306
REMARK  134  A    between atoms: _309  and  _311
REMARK  135  A    between atoms: _311  and  _312
REMARK  136  A    between atoms: _311  and  _314
REMARK  137  A    between atoms: _314  and  _315
REMARK  138  A    between atoms: _315  and  _316
REMARK  139  A    between atoms: _316  and  _317
REMARK  140  A    between atoms: _317  and  _318
REMARK  141  A    between atoms: _322  and  _324
REMARK  142  A    between atoms: _324  and  _325
REMARK  143  A    between atoms: _324  and  _327
REMARK  144  A    between atoms: _327  and  _328
REMARK  145  A    between atoms: _328  and  _329
REMARK  146  A    between atoms: _329  and  _330
REMARK  147  A    between atoms: _330  and  _331
REMARK  148  A    between atoms: _335  and  _337
REMARK  149  A    between atoms: _337  and  _338
REMARK  150  A    between atoms: _337  and  _340
REMARK  151  A    between atoms: _340  and  _341
REMARK  152  A    between atoms: _346  and  _348
REMARK  153  A    between atoms: _348  and  _349
REMARK  154  A    between atoms: _348  and  _351
REMARK  155  A    between atoms: _351  and  _352
REMARK  156  A    between atoms: _355  and  _357
REMARK  157  A    between atoms: _357  and  _358
REMARK  158  A    between atoms: _357  and  _360
REMARK  159  A    between atoms: _360  and  _361
REMARK  160  A    between atoms: _364  and  _366
REMARK  161  A    between atoms: _366  and  _367
REMARK  162  A    between atoms: _366  and  _369
REMARK  163  A    between atoms: _369  and  _370
REMARK  164  A    between atoms: _370  and  _371
REMARK  165  A    between atoms: _371  and  _372
REMARK  166  A    between atoms: _372  and  _373
REMARK  167  A    between atoms: _378  and  _379
REMARK  168  A    between atoms: _384  and  _386
REMARK  169  A    between atoms: _386  and  _387
REMARK  170  A    between atoms: _386  and  _389
REMARK  171  A    between atoms: _389  and  _390
REMARK  172  A    between atoms: _390  and  _391
REMARK  173  A    between atoms: _396  and  _398
REMARK  174  A    between atoms: _398  and  _399
REMARK  175  A    between atoms: _398  and  _401
REMARK  176  A    between atoms: _401  and  _402
REMARK  177  A    between atoms: _407  and  _409
REMARK  178  A    between atoms: _409  and  _410
REMARK  179  A    between atoms: _409  and  _412
REMARK  180  A    between atoms: _412  and  _413
REMARK  181  A    between atoms: _416  and  _418
REMARK  182  A    between atoms: _418  and  _419
REMARK  183  A    between atoms: _418  and  _421
REMARK  184  A    between atoms: _421  and  _422
REMARK  185  A    between atoms: _425  and  _427
REMARK  186  A    between atoms: _427  and  _428
REMARK  187  A    between atoms: _427  and  _430
REMARK  188  A    between atoms: _430  and  _431
REMARK  189  A    between atoms: _434  and  _436
REMARK  190  A    between atoms: _436  and  _437
REMARK  191  A    between atoms: _436  and  _439
REMARK  192  A    between atoms: _439  and  _440
REMARK  193  A    between atoms: _443  and  _445
REMARK  194  A    between atoms: _445  and  _446
REMARK  195  A    between atoms: _449  and  _451
REMARK  196  A    between atoms: _451  and  _452
REMARK  197  A    between atoms: _451  and  _454
REMARK  198  A    between atoms: _454  and  _455
REMARK  199  A    between atoms: _455  and  _457
REMARK  200  A    between atoms: _457  and  MG_558
REMARK  201  A    between atoms: _458  and  _460
REMARK  202  A    between atoms: _460  and  _461
REMARK  203  A    between atoms: _460  and  _463
REMARK  204  A    between atoms: _463  and  _464
REMARK  205  A    between atoms: _470  and  _472
REMARK  206  A    between atoms: _472  and  _473
REMARK  207  A    between atoms: _472  and  _475
REMARK  208  A    between atoms: _475  and  _476
REMARK  209  A    between atoms: _479  and  _481
REMARK  210  A    between atoms: _481  and  _482
REMARK  211  A    between atoms: _485  and  _487
REMARK  212  A    between atoms: _487  and  _488
REMARK  213  A    between atoms: _487  and  _490
REMARK  214  A    between atoms: _494  and  _495
REMARK  215  A    between atoms: _500  and  _502
REMARK  216  A    between atoms: _502  and  _503
REMARK  217  A    between atoms: _502  and  _505
REMARK  218  A    between atoms: _505  and  _506
REMARK  219  A    between atoms: _509  and  _511
REMARK  220  A    between atoms: _511  and  _512
REMARK  221  A    between atoms: _511  and  _514
REMARK  222  A    between atoms: _514  and  _515
REMARK  223  A    between atoms: _520  and  _521
REMARK  224  A    between atoms: _523  and  _525
REMARK  225  A    between atoms: _525  and  _526
REMARK  226  A    between atoms: _525  and  _528
REMARK  227  A    between atoms: _528  and  _529
REMARK  228  A    between atoms: _529  and  _530
REMARK  229  A    between atoms: _533  and  _535
REMARK  230  A    between atoms: _535  and  _536
REMARK  231  A    between atoms: _535  and  _538
REMARK  232  A    between atoms: _541  and  _543
REMARK  233  A    between atoms: _543  and  _544
REMARK  234  A    between atoms: _543  and  _546
REMARK  235  A    between atoms: _549  and  _551
REMARK  236  A    between atoms: _551  and  _552
REMARK  237  A    between atoms: _551  and  _554
REMARK  238  A    between atoms: _554  and  _555
REMARK                            x       y       z     vdW  Elec       q    Type
REMARK                         _______ _______ _______ _____ _____    ______ ____
ROOT
ATOM      1  O   HOH     1      -1.194  21.685  16.705  0.00  0.00    +0.000 OA
ENDROOT
TORSDOF 0
REMARK  Name = ../refined-set-2016/1b38/1b38_pocket.pdb
REMARK  238 active torsions:
REMARK  status: ('A' for Active; 'I' for Inactive)
REMARK    1  A    between atoms: _1  and  _3
REMARK    2  A    between atoms: _3  and  _4
REMARK    3  A    between atoms: _3  and  _6
REMARK    4  A    between atoms: _6  and  _7
REMARK    5  A    between atoms: _7  and  _8
REMARK    6  A    between atoms: _8  and  _9
REMARK    7  A    between atoms: _9  and  _10
REMARK    8  A    between atoms: _14  and  _16
REMARK    9  A    between atoms: _16  and  _17
REMARK   10  A    between atoms: _16  and  _19
REMARK   11  A    between atoms: _19  and  _20
REMARK   12  A    between atoms: _23  and  _25
REMARK   13  A    between atoms: _25  and  _26
REMARK   14  A    between atoms: _28  and  _30
REMARK   15  A    between atoms: _30  and  _31
REMARK   16  A    between atoms: _30  and  _33
REMARK   17  A    between atoms: _33  and  _34
REMARK   18  A    between atoms: _34  and  _35
REMARK   19  A    between atoms: _38  and  _40
REMARK   20  A    between atoms: _40  and  _41
REMARK   21  A    between atoms: _43  and  _45
REMARK   22  A    between atoms: _45  and  _46
REMARK   23  A    between atoms: _45  and  _48
REMARK   24  A    between atoms: _48  and  _49
REMARK   25  A    between atoms: _52  and  _54
REMARK   26  A    between atoms: _54  and  _55
REMARK   27  A    between atoms: _54  and  _57
REMARK   28  A    between atoms: _57  and  _58
REMARK   29  A    between atoms: _63  and  _64
REMARK   30  A    between atoms: _66  and  _68
REMARK   31  A    between atoms: _68  and  _69
REMARK   32  A    between atoms: _71  and  _73
REMARK   33  A    between atoms: _73  and  _74
REMARK   34  A    between atoms: _73  and  _76
REMARK   35  A    between atoms: _79  and  _81
REMARK   36  A    between atoms: _81  and  _82
REMARK   37  A    between atoms: _81  and  _84
REMARK   38  A    between atoms: _87  and  _89
REMARK   39  A    between atoms: _89  and  _90
REMARK   40  A    between atoms: _89  and  _92
REMARK   41  A    between atoms: _92  and  _93
REMARK   42  A    between atoms: _98  and  _99
REMARK   43  A    between atoms: _101  and  _103
REMARK   44  A    between atoms: _103  and  _104
REMARK   45  A    between atoms: _103  and  _106
REMARK   46  A    between atoms: _106  and  _107
REMARK   47  A    between atoms: _107  and  _108
REMARK   48  A    between atoms: _108  and  _109
REMARK   49  A    between atoms: _109  and  _110
REMARK   50  A    between atoms: _114  and  _116
REMARK   51  A    between atoms: _116  and  _117
REMARK   52  A    between atoms: _120  and  _122
REMARK   53  A    between atoms: _122  and  _123
REMARK   54  A    between atoms: _122  and  _125
REMARK   55  A    between atoms: _128  and  _130
REMARK   56  A    between atoms: _130  and  _131
REMARK   57  A    between atoms: _134  and  _136
REMARK   58  A    between atoms: _136  and  _137
REMARK   59  A    between atoms: _136  and  _139
REMARK   60  A    between atoms: _139  and  _140
REMARK   61  A    between atoms: _143  and  _145
REMARK   62  A    between atoms: _145  and  _146
REMARK   63  A    between atoms: _145  and  _148
REMARK   64  A    between atoms: _148  and  _149
REMARK   65  A    between atoms: _149  and  _150
REMARK   66  A    between atoms: _150  and  _151
REMARK   67  A    between atoms: _151  and  _152
REMARK   68  A    between atoms: _156  and  _158
REMARK   69  A    between atoms: _158  and  _159
REMARK   70  A    between atoms: _158  and  _161
REMARK   71  A    between atoms: _161  and  _162
REMARK   72  A    between atoms: _162  and  _163
REMARK   73  A    between atoms: _163  and  _164
REMARK   74  A    between atoms: _164  and  _165
REMARK   75  A    between atoms: _169  and  _171
REMARK   76  A    between atoms: _171  and  _172
REMARK   77  A    between atoms: _171  and  _174
REMARK   78  A    between atoms: _174  and  _175
REMARK   79  A    between atoms: _178  and  _180
REMARK   80  A    between atoms: _180  and  _181
REMARK   81  A    between atoms: _180  and  _183
REMARK   82  A    between atoms: _186  and  _188
REMARK   83  A    between atoms: _188  and  _189
REMARK   84  A    between atoms: _188  and  _191
REMARK   85  A    between atoms: _191  and  _192
REMARK   86  A    between atoms: _192  and  _193
REMARK   87  A    between atoms: _193  and  _194
REMARK   88  A    between atoms: _194  and  _195
REMARK   89  A    between atoms: _199  and  _201
REMARK   90  A    between atoms: _201  and  _202
REMARK   91  A    between atoms: _201  and  _204
REMARK   92  A    between atoms: _204  and  _205
REMARK   93  A    between atoms: _208  and  _210
REMARK   94  A    between atoms: _210  and  _211
REMARK   95  A    between atoms: _210  and  _213
REMARK   96  A    between atoms: _213  and  _214
REMARK   97  A    between atoms: _217  and  _219
REMARK   98  A    between atoms: _219  and  _220
REMARK   99  A    between atoms: _219  and  _222
REMARK  100  A    between atoms: _225  and  _227
REMARK  101  A    between atoms: _227  and  _228
REMARK  102  A    between atoms: _227  and  _230
REMARK  103  A    between atoms: _230  and  _231
REMARK  104  A    between atoms: _237  and  _239
REMARK  105  A    between atoms: _239  and  _240
REMARK  106  A    between atoms: _239  and  _242
REMARK  107  A    between atoms: _242  and  _243
REMARK  108  A    between atoms: _243  and  _244
REMARK  109  A    between atoms: _247  and  _249
REMARK  110  A    between atoms: _249  and  _250
REMARK  111  A    between atoms: _249  and  _252
REMARK  112  A    between atoms: _252  and  _253
REMARK  113  A    between atoms: _259  and  _261
REMARK  114  A    between atoms: _261  and  _262
REMARK  115  A    between atoms: _261  and  _264
REMARK  116  A    between atoms: _264  and  _265
REMARK  117  A    between atoms: _268  and  _270
REMARK  118  A    between atoms: _270  and  _271
REMARK  119  A    between atoms: _270  and  _273
REMARK  120  A    between atoms: _273  and  _274
REMARK  121  A    between atoms: _279  and  _281
REMARK  122  A    between atoms: _281  and  _282
REMARK  123  A    between atoms: _281  and  _284
REMARK  124  A    between atoms: _284  and  _285
REMARK  125  A    between atoms: _285  and  _286
REMARK  126  A    between atoms: _291  and  _293
REMARK  127  A    between atoms: _293  and  _294
REMARK  128  A    between atoms: _293  and  _296
REMARK  129  A    between atoms: _296  and  _297
REMARK  130  A    between atoms: _300  and  _302
REMARK  131  A    between atoms: _302  and  _303
REMARK  132  A    between atoms: _302  and  _305
REMARK  133  A    between atoms: _305  and  _306
REMARK  134  A    between atoms: _309  and  _311
REMARK  135  A    between atoms: _311  and  _312
REMARK  136  A    between atoms: _311  and  _314
REMARK  137  A    between atoms: _314  and  _315
REMARK  138  A    between atoms: _315  and  _316
REMARK  139  A    between atoms: _316  and  _317
REMARK  140  A    between atoms: _317  and  _318
REMARK  141  A    between atoms: _322  and  _324
REMARK  142  A    between atoms: _324  and  _325
REMARK  143  A    between atoms: _324  and  _327
REMARK  144  A    between atoms: _327  and  _328
REMARK  145  A    between atoms: _328  and  _329
REMARK  146  A    between atoms: _329  and  _330
REMARK  147  A    between atoms: _330  and  _331
REMARK  148  A    between atoms: _335  and  _337
REMARK  149  A    between atoms: _337  and  _338
REMARK  150  A    between atoms: _337  and  _340
REMARK  151  A    between atoms: _340  and  _341
REMARK  152  A    between atoms: _346  and  _348
REMARK  153  A    between atoms: _348  and  _349
REMARK  154  A    between atoms: _348  and  _351
REMARK  155  A    between atoms: _351  and  _352
REMARK  156  A    between atoms: _355  and  _357
REMARK  157  A    between atoms: _357  and  _358
REMARK  158  A    between atoms: _357  and  _360
REMARK  159  A    between atoms: _360  and  _361
REMARK  160  A    between atoms: _364  and  _366
REMARK  161  A    between atoms: _366  and  _367
REMARK  162  A    between atoms: _366  and  _369
REMARK  163  A    between atoms: _369  and  _370
REMARK  164  A    between atoms: _370  and  _371
REMARK  165  A    between atoms: _371  and  _372
REMARK  166  A    between atoms: _372  and  _373
REMARK  167  A    between atoms: _378  and  _379
REMARK  168  A    between atoms: _384  and  _386
REMARK  169  A    between atoms: _386  and  _387
REMARK  170  A    between atoms: _386  and  _389
REMARK  171  A    between atoms: _389  and  _390
REMARK  172  A    between atoms: _390  and  _391
REMARK  173  A    between atoms: _396  and  _398
REMARK  174  A    between atoms: _398  and  _399
REMARK  175  A    between atoms: _398  and  _401
REMARK  176  A    between atoms: _401  and  _402
REMARK  177  A    between atoms: _407  and  _409
REMARK  178  A    between atoms: _409  and  _410
REMARK  179  A    between atoms: _409  and  _412
REMARK  180  A    between atoms: _412  and  _413
REMARK  181  A    between atoms: _416  and  _418
REMARK  182  A    between atoms: _418  and  _419
REMARK  183  A    between atoms: _418  and  _421
REMARK  184  A    between atoms: _421  and  _422
REMARK  185  A    between atoms: _425  and  _427
REMARK  186  A    between atoms: _427  and  _428
REMARK  187  A    between atoms: _427  and  _430
REMARK  188  A    between atoms: _430  and  _431
REMARK  189  A    between atoms: _434  and  _436
REMARK  190  A    between atoms: _436  and  _437
REMARK  191  A    between atoms: _436  and  _439
REMARK  192  A    between atoms: _439  and  _440
REMARK  193  A    between atoms: _443  and  _445
REMARK  194  A    between atoms: _445  and  _446
REMARK  195  A    between atoms: _449  and  _451
REMARK  196  A    between atoms: _451  and  _452
REMARK  197  A    between atoms: _451  and  _454
REMARK  198  A    between atoms: _454  and  _455
REMARK  199  A    between atoms: _455  and  _457
REMARK  200  A    between atoms: _457  and  MG_558
REMARK  201  A    between atoms: _458  and  _460
REMARK  202  A    between atoms: _460  and  _461
REMARK  203  A    between atoms: _460  and  _463
REMARK  204  A    between atoms: _463  and  _464
REMARK  205  A    between atoms: _470  and  _472
REMARK  206  A    between atoms: _472  and  _473
REMARK  207  A    between atoms: _472  and  _475
REMARK  208  A    between atoms: _475  and  _476
REMARK  209  A    between atoms: _479  and  _481
REMARK  210  A    between atoms: _481  and  _482
REMARK  211  A    between atoms: _485  and  _487
REMARK  212  A    between atoms: _487  and  _488
REMARK  213  A    between atoms: _487  and  _490
REMARK  214  A    between atoms: _494  and  _495
REMARK  215  A    between atoms: _500  and  _502
REMARK  216  A    between atoms: _502  and  _503
REMARK  217  A    between atoms: _502  and  _505
REMARK  218  A    between atoms: _505  and  _506
REMARK  219  A    between atoms: _509  and  _511
REMARK  220  A    between atoms: _511  and  _512
REMARK  221  A    between atoms: _511  and  _514
REMARK  222  A    between atoms: _514  and  _515
REMARK  223  A    between atoms: _520  and  _521
REMARK  224  A    between atoms: _523  and  _525
REMARK  225  A    between atoms: _525  and  _526
REMARK  226  A    between atoms: _525  and  _528
REMARK  227  A    between atoms: _528  and  _529
REMARK  228  A    between atoms: _529  and  _530
REMARK  229  A    between atoms: _533  and  _535
REMARK  230  A    between atoms: _535  and  _536
REMARK  231  A    between atoms: _535  and  _538
REMARK  232  A    between atoms: _541  and  _543
REMARK  233  A    between atoms: _543  and  _544
REMARK  234  A    between atoms: _543  and  _546
REMARK  235  A    between atoms: _549  and  _551
REMARK  236  A    between atoms: _551  and  _552
REMARK  237  A    between atoms: _551  and  _554
REMARK  238  A    between atoms: _554  and  _555
REMARK                            x       y       z     vdW  Elec       q    Type
REMARK                         _______ _______ _______ _____ _____    ______ ____
ROOT
ATOM      1  O   HOH     1      -0.627  20.941  12.210  0.00  0.00    +0.000 OA
ENDROOT
TORSDOF 0
REMARK  Name = ../refined-set-2016/1b38/1b38_pocket.pdb
REMARK  238 active torsions:
REMARK  status: ('A' for Active; 'I' for Inactive)
REMARK    1  A    between atoms: _1  and  _3
REMARK    2  A    between atoms: _3  and  _4
REMARK    3  A    between atoms: _3  and  _6
REMARK    4  A    between atoms: _6  and  _7
REMARK    5  A    between atoms: _7  and  _8
REMARK    6  A    between atoms: _8  and  _9
REMARK    7  A    between atoms: _9  and  _10
REMARK    8  A    between atoms: _14  and  _16
REMARK    9  A    between atoms: _16  and  _17
REMARK   10  A    between atoms: _16  and  _19
REMARK   11  A    between atoms: _19  and  _20
REMARK   12  A    between atoms: _23  and  _25
REMARK   13  A    between atoms: _25  and  _26
REMARK   14  A    between atoms: _28  and  _30
REMARK   15  A    between atoms: _30  and  _31
REMARK   16  A    between atoms: _30  and  _33
REMARK   17  A    between atoms: _33  and  _34
REMARK   18  A    between atoms: _34  and  _35
REMARK   19  A    between atoms: _38  and  _40
REMARK   20  A    between atoms: _40  and  _41
REMARK   21  A    between atoms: _43  and  _45
REMARK   22  A    between atoms: _45  and  _46
REMARK   23  A    between atoms: _45  and  _48
REMARK   24  A    between atoms: _48  and  _49
REMARK   25  A    between atoms: _52  and  _54
REMARK   26  A    between atoms: _54  and  _55
REMARK   27  A    between atoms: _54  and  _57
REMARK   28  A    between atoms: _57  and  _58
REMARK   29  A    between atoms: _63  and  _64
REMARK   30  A    between atoms: _66  and  _68
REMARK   31  A    between atoms: _68  and  _69
REMARK   32  A    between atoms: _71  and  _73
REMARK   33  A    between atoms: _73  and  _74
REMARK   34  A    between atoms: _73  and  _76
REMARK   35  A    between atoms: _79  and  _81
REMARK   36  A    between atoms: _81  and  _82
REMARK   37  A    between atoms: _81  and  _84
REMARK   38  A    between atoms: _87  and  _89
REMARK   39  A    between atoms: _89  and  _90
REMARK   40  A    between atoms: _89  and  _92
REMARK   41  A    between atoms: _92  and  _93
REMARK   42  A    between atoms: _98  and  _99
REMARK   43  A    between atoms: _101  and  _103
REMARK   44  A    between atoms: _103  and  _104
REMARK   45  A    between atoms: _103  and  _106
REMARK   46  A    between atoms: _106  and  _107
REMARK   47  A    between atoms: _107  and  _108
REMARK   48  A    between atoms: _108  and  _109
REMARK   49  A    between atoms: _109  and  _110
REMARK   50  A    between atoms: _114  and  _116
REMARK   51  A    between atoms: _116  and  _117
REMARK   52  A    between atoms: _120  and  _122
REMARK   53  A    between atoms: _122  and  _123
REMARK   54  A    between atoms: _122  and  _125
REMARK   55  A    between atoms: _128  and  _130
REMARK   56  A    between atoms: _130  and  _131
REMARK   57  A    between atoms: _134  and  _136
REMARK   58  A    between atoms: _136  and  _137
REMARK   59  A    between atoms: _136  and  _139
REMARK   60  A    between atoms: _139  and  _140
REMARK   61  A    between atoms: _143  and  _145
REMARK   62  A    between atoms: _145  and  _146
REMARK   63  A    between atoms: _145  and  _148
REMARK   64  A    between atoms: _148  and  _149
REMARK   65  A    between atoms: _149  and  _150
REMARK   66  A    between atoms: _150  and  _151
REMARK   67  A    between atoms: _151  and  _152
REMARK   68  A    between atoms: _156  and  _158
REMARK   69  A    between atoms: _158  and  _159
REMARK   70  A    between atoms: _158  and  _161
REMARK   71  A    between atoms: _161  and  _162
REMARK   72  A    between atoms: _162  and  _163
REMARK   73  A    between atoms: _163  and  _164
REMARK   74  A    between atoms: _164  and  _165
REMARK   75  A    between atoms: _169  and  _171
REMARK   76  A    between atoms: _171  and  _172
REMARK   77  A    between atoms: _171  and  _174
REMARK   78  A    between atoms: _174  and  _175
REMARK   79  A    between atoms: _178  and  _180
REMARK   80  A    between atoms: _180  and  _181
REMARK   81  A    between atoms: _180  and  _183
REMARK   82  A    between atoms: _186  and  _188
REMARK   83  A    between atoms: _188  and  _189
REMARK   84  A    between atoms: _188  and  _191
REMARK   85  A    between atoms: _191  and  _192
REMARK   86  A    between atoms: _192  and  _193
REMARK   87  A    between atoms: _193  and  _194
REMARK   88  A    between atoms: _194  and  _195
REMARK   89  A    between atoms: _199  and  _201
REMARK   90  A    between atoms: _201  and  _202
REMARK   91  A    between atoms: _201  and  _204
REMARK   92  A    between atoms: _204  and  _205
REMARK   93  A    between atoms: _208  and  _210
REMARK   94  A    between atoms: _210  and  _211
REMARK   95  A    between atoms: _210  and  _213
REMARK   96  A    between atoms: _213  and  _214
REMARK   97  A    between atoms: _217  and  _219
REMARK   98  A    between atoms: _219  and  _220
REMARK   99  A    between atoms: _219  and  _222
REMARK  100  A    between atoms: _225  and  _227
REMARK  101  A    between atoms: _227  and  _228
REMARK  102  A    between atoms: _227  and  _230
REMARK  103  A    between atoms: _230  and  _231
REMARK  104  A    between atoms: _237  and  _239
REMARK  105  A    between atoms: _239  and  _240
REMARK  106  A    between atoms: _239  and  _242
REMARK  107  A    between atoms: _242  and  _243
REMARK  108  A    between atoms: _243  and  _244
REMARK  109  A    between atoms: _247  and  _249
REMARK  110  A    between atoms: _249  and  _250
REMARK  111  A    between atoms: _249  and  _252
REMARK  112  A    between atoms: _252  and  _253
REMARK  113  A    between atoms: _259  and  _261
REMARK  114  A    between atoms: _261  and  _262
REMARK  115  A    between atoms: _261  and  _264
REMARK  116  A    between atoms: _264  and  _265
REMARK  117  A    between atoms: _268  and  _270
REMARK  118  A    between atoms: _270  and  _271
REMARK  119  A    between atoms: _270  and  _273
REMARK  120  A    between atoms: _273  and  _274
REMARK  121  A    between atoms: _279  and  _281
REMARK  122  A    between atoms: _281  and  _282
REMARK  123  A    between atoms: _281  and  _284
REMARK  124  A    between atoms: _284  and  _285
REMARK  125  A    between atoms: _285  and  _286
REMARK  126  A    between atoms: _291  and  _293
REMARK  127  A    between atoms: _293  and  _294
REMARK  128  A    between atoms: _293  and  _296
REMARK  129  A    between atoms: _296  and  _297
REMARK  130  A    between atoms: _300  and  _302
REMARK  131  A    between atoms: _302  and  _303
REMARK  132  A    between atoms: _302  and  _305
REMARK  133  A    between atoms: _305  and  _306
REMARK  134  A    between atoms: _309  and  _311
REMARK  135  A    between atoms: _311  and  _312
REMARK  136  A    between atoms: _311  and  _314
REMARK  137  A    between atoms: _314  and  _315
REMARK  138  A    between atoms: _315  and  _316
REMARK  139  A    between atoms: _316  and  _317
REMARK  140  A    between atoms: _317  and  _318
REMARK  141  A    between atoms: _322  and  _324
REMARK  142  A    between atoms: _324  and  _325
REMARK  143  A    between atoms: _324  and  _327
REMARK  144  A    between atoms: _327  and  _328
REMARK  145  A    between atoms: _328  and  _329
REMARK  146  A    between atoms: _329  and  _330
REMARK  147  A    between atoms: _330  and  _331
REMARK  148  A    between atoms: _335  and  _337
REMARK  149  A    between atoms: _337  and  _338
REMARK  150  A    between atoms: _337  and  _340
REMARK  151  A    between atoms: _340  and  _341
REMARK  152  A    between atoms: _346  and  _348
REMARK  153  A    between atoms: _348  and  _349
REMARK  154  A    between atoms: _348  and  _351
REMARK  155  A    between atoms: _351  and  _352
REMARK  156  A    between atoms: _355  and  _357
REMARK  157  A    between atoms: _357  and  _358
REMARK  158  A    between atoms: _357  and  _360
REMARK  159  A    between atoms: _360  and  _361
REMARK  160  A    between atoms: _364  and  _366
REMARK  161  A    between atoms: _366  and  _367
REMARK  162  A    between atoms: _366  and  _369
REMARK  163  A    between atoms: _369  and  _370
REMARK  164  A    between atoms: _370  and  _371
REMARK  165  A    between atoms: _371  and  _372
REMARK  166  A    between atoms: _372  and  _373
REMARK  167  A    between atoms: _378  and  _379
REMARK  168  A    between atoms: _384  and  _386
REMARK  169  A    between atoms: _386  and  _387
REMARK  170  A    between atoms: _386  and  _389
REMARK  171  A    between atoms: _389  and  _390
REMARK  172  A    between atoms: _390  and  _391
REMARK  173  A    between atoms: _396  and  _398
REMARK  174  A    between atoms: _398  and  _399
REMARK  175  A    between atoms: _398  and  _401
REMARK  176  A    between atoms: _401  and  _402
REMARK  177  A    between atoms: _407  and  _409
REMARK  178  A    between atoms: _409  and  _410
REMARK  179  A    between atoms: _409  and  _412
REMARK  180  A    between atoms: _412  and  _413
REMARK  181  A    between atoms: _416  and  _418
REMARK  182  A    between atoms: _418  and  _419
REMARK  183  A    between atoms: _418  and  _421
REMARK  184  A    between atoms: _421  and  _422
REMARK  185  A    between atoms: _425  and  _427
REMARK  186  A    between atoms: _427  and  _428
REMARK  187  A    between atoms: _427  and  _430
REMARK  188  A    between atoms: _430  and  _431
REMARK  189  A    between atoms: _434  and  _436
REMARK  190  A    between atoms: _436  and  _437
REMARK  191  A    between atoms: _436  and  _439
REMARK  192  A    between atoms: _439  and  _440
REMARK  193  A    between atoms: _443  and  _445
REMARK  194  A    between atoms: _445  and  _446
REMARK  195  A    between atoms: _449  and  _451
REMARK  196  A    between atoms: _451  and  _452
REMARK  197  A    between atoms: _451  and  _454
REMARK  198  A    between atoms: _454  and  _455
REMARK  199  A    between atoms: _455  and  _457
REMARK  200  A    between atoms: _457  and  MG_558
REMARK  201  A    between atoms: _458  and  _460
REMARK  202  A    between atoms: _460  and  _461
REMARK  203  A    between atoms: _460  and  _463
REMARK  204  A    between atoms: _463  and  _464
REMARK  205  A    between atoms: _470  and  _472
REMARK  206  A    between atoms: _472  and  _473
REMARK  207  A    between atoms: _472  and  _475
REMARK  208  A    between atoms: _475  and  _476
REMARK  209  A    between atoms: _479  and  _481
REMARK  210  A    between atoms: _481  and  _482
REMARK  211  A    between atoms: _485  and  _487
REMARK  212  A    between atoms: _487  and  _488
REMARK  213  A    between atoms: _487  and  _490
REMARK  214  A    between atoms: _494  and  _495
REMARK  215  A    between atoms: _500  and  _502
REMARK  216  A    between atoms: _502  and  _503
REMARK  217  A    between atoms: _502  and  _505
REMARK  218  A    between atoms: _505  and  _506
REMARK  219  A    between atoms: _509  and  _511
REMARK  220  A    between atoms: _511  and  _512
REMARK  221  A    between atoms: _511  and  _514
REMARK  222  A    between atoms: _514  and  _515
REMARK  223  A    between atoms: _520  and  _521
REMARK  224  A    between atoms: _523  and  _525
REMARK  225  A    between atoms: _525  and  _526
REMARK  226  A    between atoms: _525  and  _528
REMARK  227  A    between atoms: _528  and  _529
REMARK  228  A    between atoms: _529  and  _530
REMARK  229  A    between atoms: _533  and  _535
REMARK  230  A    between atoms: _535  and  _536
REMARK  231  A    between atoms: _535  and  _538
REMARK  232  A    between atoms: _541  and  _543
REMARK  233  A    between atoms: _543  and  _544
REMARK  234  A    between atoms: _543  and  _546
REMARK  235  A    between atoms: _549  and  _551
REMARK  236  A    between atoms: _551  and  _552
REMARK  237  A    between atoms: _551  and  _554
REMARK  238  A    between atoms: _554  and  _555
REMARK                            x       y       z     vdW  Elec       q    Type
REMARK                         _______ _______ _______ _____ _____    ______ ____
ROOT
ATOM      1  O   HOH     1      -6.452  28.936  17.606  0.00  0.00    +0.000 OA
ENDROOT
TORSDOF 0
