REMARK  Name = ../refined-set-2016/3gi5/3gi5_pocket.pdb
REMARK  213 active torsions:
REMARK  status: ('A' for Active; 'I' for Inactive)
REMARK    1  A    between atoms: _1  and  _3
REMARK    2  A    between atoms: _3  and  _4
REMARK    3  A    between atoms: _3  and  _6
REMARK    4  A    between atoms: _6  and  _7
REMARK    5  A    between atoms: _7  and  _8
REMARK    6  A    between atoms: _8  and  _9
REMARK    7  A    between atoms: _18  and  _20
REMARK    8  A    between atoms: _20  and  _21
REMARK    9  A    between atoms: _20  and  _23
REMARK   10  A    between atoms: _23  and  _24
REMARK   11  A    between atoms: _27  and  _29
REMARK   12  A    between atoms: _29  and  _30
REMARK   13  A    between atoms: _29  and  _32
REMARK   14  A    between atoms: _32  and  _33
REMARK   15  A    between atoms: _36  and  _38
REMARK   16  A    between atoms: _38  and  _39
REMARK   17  A    between atoms: _38  and  _41
REMARK   18  A    between atoms: _41  and  _42
REMARK   19  A    between atoms: _45  and  _47
REMARK   20  A    between atoms: _47  and  _48
REMARK   21  A    between atoms: _47  and  _50
REMARK   22  A    between atoms: _50  and  _51
REMARK   23  A    between atoms: _54  and  _56
REMARK   24  A    between atoms: _56  and  _57
REMARK   25  A    between atoms: _59  and  _61
REMARK   26  A    between atoms: _61  and  _62
REMARK   27  A    between atoms: _65  and  _67
REMARK   28  A    between atoms: _67  and  _68
REMARK   29  A    between atoms: _67  and  _70
REMARK   30  A    between atoms: _70  and  _71
REMARK   31  A    between atoms: _74  and  _76
REMARK   32  A    between atoms: _76  and  _77
REMARK   33  A    between atoms: _76  and  _79
REMARK   34  A    between atoms: _79  and  _80
REMARK   35  A    between atoms: _83  and  _85
REMARK   36  A    between atoms: _85  and  _86
REMARK   37  A    between atoms: _85  and  _88
REMARK   38  A    between atoms: _88  and  _89
REMARK   39  A    between atoms: _92  and  _94
REMARK   40  A    between atoms: _94  and  _95
REMARK   41  A    between atoms: _94  and  _97
REMARK   42  A    between atoms: _100  and  _102
REMARK   43  A    between atoms: _102  and  _103
REMARK   44  A    between atoms: _102  and  _105
REMARK   45  A    between atoms: _105  and  _106
REMARK   46  A    between atoms: _106  and  _107
REMARK   47  A    between atoms: _107  and  _108
REMARK   48  A    between atoms: _108  and  _109
REMARK   49  A    between atoms: _113  and  _115
REMARK   50  A    between atoms: _115  and  _116
REMARK   51  A    between atoms: _115  and  _118
REMARK   52  A    between atoms: _118  and  _119
REMARK   53  A    between atoms: _122  and  _124
REMARK   54  A    between atoms: _124  and  _125
REMARK   55  A    between atoms: _127  and  _129
REMARK   56  A    between atoms: _129  and  _130
REMARK   57  A    between atoms: _132  and  _134
REMARK   58  A    between atoms: _134  and  _135
REMARK   59  A    between atoms: _134  and  _137
REMARK   60  A    between atoms: _137  and  _138
REMARK   61  A    between atoms: _141  and  _143
REMARK   62  A    between atoms: _143  and  _144
REMARK   63  A    between atoms: _146  and  _148
REMARK   64  A    between atoms: _148  and  _149
REMARK   65  A    between atoms: _151  and  _153
REMARK   66  A    between atoms: _153  and  _154
REMARK   67  A    between atoms: _153  and  _156
REMARK   68  A    between atoms: _156  and  _157
REMARK   69  A    between atoms: _163  and  _165
REMARK   70  A    between atoms: _165  and  _166
REMARK   71  A    between atoms: _165  and  _168
REMARK   72  A    between atoms: _168  and  _169
REMARK   73  A    between atoms: _173  and  _174
REMARK   74  A    between atoms: _179  and  _181
REMARK   75  A    between atoms: _181  and  _182
REMARK   76  A    between atoms: _181  and  _184
REMARK   77  A    between atoms: _187  and  _189
REMARK   78  A    between atoms: _189  and  _190
REMARK   79  A    between atoms: _189  and  _192
REMARK   80  A    between atoms: _192  and  _193
REMARK   81  A    between atoms: _198  and  _200
REMARK   82  A    between atoms: _200  and  _201
REMARK   83  A    between atoms: _200  and  _203
REMARK   84  A    between atoms: _203  and  _204
REMARK   85  A    between atoms: _207  and  _209
REMARK   86  A    between atoms: _209  and  _210
REMARK   87  A    between atoms: _209  and  _212
REMARK   88  A    between atoms: _212  and  _213
REMARK   89  A    between atoms: _216  and  _218
REMARK   90  A    between atoms: _218  and  _219
REMARK   91  A    between atoms: _221  and  _223
REMARK   92  A    between atoms: _223  and  _224
REMARK   93  A    between atoms: _223  and  _226
REMARK   94  A    between atoms: _226  and  _227
REMARK   95  A    between atoms: _227  and  _228
REMARK   96  A    between atoms: _228  and  _229
REMARK   97  A    between atoms: _238  and  _240
REMARK   98  A    between atoms: _240  and  _241
REMARK   99  A    between atoms: _240  and  _243
REMARK  100  A    between atoms: _243  and  _244
REMARK  101  A    between atoms: _244  and  _245
REMARK  102  A    between atoms: _245  and  _246
REMARK  103  A    between atoms: _255  and  _257
REMARK  104  A    between atoms: _257  and  _258
REMARK  105  A    between atoms: _257  and  _260
REMARK  106  A    between atoms: _260  and  _261
REMARK  107  A    between atoms: _264  and  _266
REMARK  108  A    between atoms: _266  and  _267
REMARK  109  A    between atoms: _266  and  _269
REMARK  110  A    between atoms: _269  and  _270
REMARK  111  A    between atoms: _273  and  _275
REMARK  112  A    between atoms: _275  and  _276
REMARK  113  A    between atoms: _275  and  _278
REMARK  114  A    between atoms: _278  and  _279
REMARK  115  A    between atoms: _282  and  _284
REMARK  116  A    between atoms: _284  and  _285
REMARK  117  A    between atoms: _284  and  _287
REMARK  118  A    between atoms: _287  and  _288
REMARK  119  A    between atoms: _291  and  _293
REMARK  120  A    between atoms: _293  and  _294
REMARK  121  A    between atoms: _296  and  _298
REMARK  122  A    between atoms: _298  and  _299
REMARK  123  A    between atoms: _302  and  _304
REMARK  124  A    between atoms: _304  and  _305
REMARK  125  A    between atoms: _304  and  _307
REMARK  126  A    between atoms: _307  and  _308
REMARK  127  A    between atoms: _311  and  _313
REMARK  128  A    between atoms: _313  and  _314
REMARK  129  A    between atoms: _313  and  _316
REMARK  130  A    between atoms: _316  and  _317
REMARK  131  A    between atoms: _320  and  _322
REMARK  132  A    between atoms: _322  and  _323
REMARK  133  A    between atoms: _322  and  _325
REMARK  134  A    between atoms: _325  and  _326
REMARK  135  A    between atoms: _329  and  _331
REMARK  136  A    between atoms: _331  and  _332
REMARK  137  A    between atoms: _331  and  _334
REMARK  138  A    between atoms: _337  and  _339
REMARK  139  A    between atoms: _339  and  _340
REMARK  140  A    between atoms: _339  and  _342
REMARK  141  A    between atoms: _342  and  _343
REMARK  142  A    between atoms: _343  and  _344
REMARK  143  A    between atoms: _344  and  _345
REMARK  144  A    between atoms: _345  and  _346
REMARK  145  A    between atoms: _350  and  _352
REMARK  146  A    between atoms: _352  and  _353
REMARK  147  A    between atoms: _352  and  _355
REMARK  148  A    between atoms: _355  and  _356
REMARK  149  A    between atoms: _356  and  _357
REMARK  150  A    between atoms: _359  and  _361
REMARK  151  A    between atoms: _361  and  _362
REMARK  152  A    between atoms: _361  and  _364
REMARK  153  A    between atoms: _364  and  _365
REMARK  154  A    between atoms: _368  and  _370
REMARK  155  A    between atoms: _370  and  _371
REMARK  156  A    between atoms: _373  and  _375
REMARK  157  A    between atoms: _375  and  _376
REMARK  158  A    between atoms: _378  and  _380
REMARK  159  A    between atoms: _380  and  _381
REMARK  160  A    between atoms: _380  and  _383
REMARK  161  A    between atoms: _383  and  _384
REMARK  162  A    between atoms: _387  and  _389
REMARK  163  A    between atoms: _389  and  _390
REMARK  164  A    between atoms: _392  and  _394
REMARK  165  A    between atoms: _394  and  _395
REMARK  166  A    between atoms: _397  and  _399
REMARK  167  A    between atoms: _399  and  _400
REMARK  168  A    between atoms: _399  and  _402
REMARK  169  A    between atoms: _402  and  _403
REMARK  170  A    between atoms: _409  and  _411
REMARK  171  A    between atoms: _411  and  _412
REMARK  172  A    between atoms: _411  and  _414
REMARK  173  A    between atoms: _414  and  _415
REMARK  174  A    between atoms: _418  and  _420
REMARK  175  A    between atoms: _420  and  _421
REMARK  176  A    between atoms: _420  and  _423
REMARK  177  A    between atoms: _426  and  _428
REMARK  178  A    between atoms: _428  and  _429
REMARK  179  A    between atoms: _428  and  _431
REMARK  180  A    between atoms: _431  and  _432
REMARK  181  A    between atoms: _436  and  _437
REMARK  182  A    between atoms: _442  and  _444
REMARK  183  A    between atoms: _444  and  _445
REMARK  184  A    between atoms: _444  and  _447
REMARK  185  A    between atoms: _447  and  _448
REMARK  186  A    between atoms: _452  and  _453
REMARK  187  A    between atoms: _458  and  _460
REMARK  188  A    between atoms: _460  and  _461
REMARK  189  A    between atoms: _460  and  _463
REMARK  190  A    between atoms: _466  and  _468
REMARK  191  A    between atoms: _468  and  _469
REMARK  192  A    between atoms: _468  and  _471
REMARK  193  A    between atoms: _471  and  _472
REMARK  194  A    between atoms: _477  and  _479
REMARK  195  A    between atoms: _479  and  _480
REMARK  196  A    between atoms: _479  and  _482
REMARK  197  A    between atoms: _482  and  _483
REMARK  198  A    between atoms: _486  and  _488
REMARK  199  A    between atoms: _488  and  _489
REMARK  200  A    between atoms: _488  and  _491
REMARK  201  A    between atoms: _491  and  _492
REMARK  202  A    between atoms: _495  and  _497
REMARK  203  A    between atoms: _497  and  _498
REMARK  204  A    between atoms: _500  and  _502
REMARK  205  A    between atoms: _502  and  _503
REMARK  206  A    between atoms: _502  and  _505
REMARK  207  A    between atoms: _505  and  _506
REMARK  208  A    between atoms: _506  and  _507
REMARK  209  A    between atoms: _507  and  _508
REMARK  210  A    between atoms: _517  and  _519
REMARK  211  A    between atoms: _519  and  _520
REMARK  212  A    between atoms: _519  and  _522
REMARK  213  A    between atoms: _522  and  _523
REMARK                            x       y       z     vdW  Elec       q    Type
REMARK                         _______ _______ _______ _____ _____    ______ ____
ROOT
ATOM      1  NE  ARG A   1      20.745  37.120  23.899  0.00  0.00    -0.265 N 
ATOM      2  HE  ARG A   1      19.746  36.883  24.063  0.00  0.00    +0.259 HD
ATOM      3  CZ  ARG A   1      21.013  38.192  23.153  0.00  0.00    +0.342 C 
ATOM      4  NH2 ARG A   1      22.270  38.555  22.907  0.00  0.00    -0.292 N 
ATOM      5 HH21 ARG A   1      23.058  38.000  23.298  0.00  0.00    +0.255 HD
ATOM      6 HH22 ARG A   1      22.464  39.394  22.323  0.00  0.00    +0.255 HD
ATOM      7  NH1 ARG A   1      20.020  38.914  22.652  0.00  0.00    -0.292 N 
ATOM      8 HH11 ARG A   1      19.034  38.644  22.841  0.00  0.00    +0.255 HD
ATOM      9 HH12 ARG A   1      20.227  39.750  22.070  0.00  0.00    +0.255 HD
ENDROOT
BRANCH   1  10
ATOM     10  CD  ARG A   1      21.757  36.255  24.502  0.00  0.00    +0.174 C 
BRANCH  10  11
ATOM     11  CG  ARG A   1      21.133  35.122  25.280  0.00  0.00    +0.045 C 
BRANCH  11  12
ATOM     12  CB  ARG A   1      22.145  34.429  26.133  0.00  0.00    +0.029 C 
BRANCH  12  13
ATOM     13  CA  ARG A   1      21.541  33.370  27.056  0.00  0.00    +0.133 C 
BRANCH  13  14
ATOM     14  N   ARG A   1      20.803  33.979  28.161  0.00  0.00    -0.239 NA
ATOM     15  H   ARG A   1      20.740  35.015  28.228  0.00  0.00    +0.142 HD
ENDBRANCH  13  14
BRANCH  13  16
ATOM     16  C   ARG A   1      22.658  32.470  27.576  0.00  0.00    +0.224 C 
ATOM     17  O   ARG A   1      23.432  32.882  28.443  0.00  0.00    -0.287 OA
ENDBRANCH  13  16
ENDBRANCH  12  13
ENDBRANCH  11  12
ENDBRANCH  10  11
ENDBRANCH   1  10
TORSDOF 6
REMARK  Name = ../refined-set-2016/3gi5/3gi5_pocket.pdb
REMARK  213 active torsions:
REMARK  status: ('A' for Active; 'I' for Inactive)
REMARK    1  A    between atoms: _1  and  _3
REMARK    2  A    between atoms: _3  and  _4
REMARK    3  A    between atoms: _3  and  _6
REMARK    4  A    between atoms: _6  and  _7
REMARK    5  A    between atoms: _7  and  _8
REMARK    6  A    between atoms: _8  and  _9
REMARK    7  A    between atoms: _18  and  _20
REMARK    8  A    between atoms: _20  and  _21
REMARK    9  A    between atoms: _20  and  _23
REMARK   10  A    between atoms: _23  and  _24
REMARK   11  A    between atoms: _27  and  _29
REMARK   12  A    between atoms: _29  and  _30
REMARK   13  A    between atoms: _29  and  _32
REMARK   14  A    between atoms: _32  and  _33
REMARK   15  A    between atoms: _36  and  _38
REMARK   16  A    between atoms: _38  and  _39
REMARK   17  A    between atoms: _38  and  _41
REMARK   18  A    between atoms: _41  and  _42
REMARK   19  A    between atoms: _45  and  _47
REMARK   20  A    between atoms: _47  and  _48
REMARK   21  A    between atoms: _47  and  _50
REMARK   22  A    between atoms: _50  and  _51
REMARK   23  A    between atoms: _54  and  _56
REMARK   24  A    between atoms: _56  and  _57
REMARK   25  A    between atoms: _59  and  _61
REMARK   26  A    between atoms: _61  and  _62
REMARK   27  A    between atoms: _65  and  _67
REMARK   28  A    between atoms: _67  and  _68
REMARK   29  A    between atoms: _67  and  _70
REMARK   30  A    between atoms: _70  and  _71
REMARK   31  A    between atoms: _74  and  _76
REMARK   32  A    between atoms: _76  and  _77
REMARK   33  A    between atoms: _76  and  _79
REMARK   34  A    between atoms: _79  and  _80
REMARK   35  A    between atoms: _83  and  _85
REMARK   36  A    between atoms: _85  and  _86
REMARK   37  A    between atoms: _85  and  _88
REMARK   38  A    between atoms: _88  and  _89
REMARK   39  A    between atoms: _92  and  _94
REMARK   40  A    between atoms: _94  and  _95
REMARK   41  A    between atoms: _94  and  _97
REMARK   42  A    between atoms: _100  and  _102
REMARK   43  A    between atoms: _102  and  _103
REMARK   44  A    between atoms: _102  and  _105
REMARK   45  A    between atoms: _105  and  _106
REMARK   46  A    between atoms: _106  and  _107
REMARK   47  A    between atoms: _107  and  _108
REMARK   48  A    between atoms: _108  and  _109
REMARK   49  A    between atoms: _113  and  _115
REMARK   50  A    between atoms: _115  and  _116
REMARK   51  A    between atoms: _115  and  _118
REMARK   52  A    between atoms: _118  and  _119
REMARK   53  A    between atoms: _122  and  _124
REMARK   54  A    between atoms: _124  and  _125
REMARK   55  A    between atoms: _127  and  _129
REMARK   56  A    between atoms: _129  and  _130
REMARK   57  A    between atoms: _132  and  _134
REMARK   58  A    between atoms: _134  and  _135
REMARK   59  A    between atoms: _134  and  _137
REMARK   60  A    between atoms: _137  and  _138
REMARK   61  A    between atoms: _141  and  _143
REMARK   62  A    between atoms: _143  and  _144
REMARK   63  A    between atoms: _146  and  _148
REMARK   64  A    between atoms: _148  and  _149
REMARK   65  A    between atoms: _151  and  _153
REMARK   66  A    between atoms: _153  and  _154
REMARK   67  A    between atoms: _153  and  _156
REMARK   68  A    between atoms: _156  and  _157
REMARK   69  A    between atoms: _163  and  _165
REMARK   70  A    between atoms: _165  and  _166
REMARK   71  A    between atoms: _165  and  _168
REMARK   72  A    between atoms: _168  and  _169
REMARK   73  A    between atoms: _173  and  _174
REMARK   74  A    between atoms: _179  and  _181
REMARK   75  A    between atoms: _181  and  _182
REMARK   76  A    between atoms: _181  and  _184
REMARK   77  A    between atoms: _187  and  _189
REMARK   78  A    between atoms: _189  and  _190
REMARK   79  A    between atoms: _189  and  _192
REMARK   80  A    between atoms: _192  and  _193
REMARK   81  A    between atoms: _198  and  _200
REMARK   82  A    between atoms: _200  and  _201
REMARK   83  A    between atoms: _200  and  _203
REMARK   84  A    between atoms: _203  and  _204
REMARK   85  A    between atoms: _207  and  _209
REMARK   86  A    between atoms: _209  and  _210
REMARK   87  A    between atoms: _209  and  _212
REMARK   88  A    between atoms: _212  and  _213
REMARK   89  A    between atoms: _216  and  _218
REMARK   90  A    between atoms: _218  and  _219
REMARK   91  A    between atoms: _221  and  _223
REMARK   92  A    between atoms: _223  and  _224
REMARK   93  A    between atoms: _223  and  _226
REMARK   94  A    between atoms: _226  and  _227
REMARK   95  A    between atoms: _227  and  _228
REMARK   96  A    between atoms: _228  and  _229
REMARK   97  A    between atoms: _238  and  _240
REMARK   98  A    between atoms: _240  and  _241
REMARK   99  A    between atoms: _240  and  _243
REMARK  100  A    between atoms: _243  and  _244
REMARK  101  A    between atoms: _244  and  _245
REMARK  102  A    between atoms: _245  and  _246
REMARK  103  A    between atoms: _255  and  _257
REMARK  104  A    between atoms: _257  and  _258
REMARK  105  A    between atoms: _257  and  _260
REMARK  106  A    between atoms: _260  and  _261
REMARK  107  A    between atoms: _264  and  _266
REMARK  108  A    between atoms: _266  and  _267
REMARK  109  A    between atoms: _266  and  _269
REMARK  110  A    between atoms: _269  and  _270
REMARK  111  A    between atoms: _273  and  _275
REMARK  112  A    between atoms: _275  and  _276
REMARK  113  A    between atoms: _275  and  _278
REMARK  114  A    between atoms: _278  and  _279
REMARK  115  A    between atoms: _282  and  _284
REMARK  116  A    between atoms: _284  and  _285
REMARK  117  A    between atoms: _284  and  _287
REMARK  118  A    between atoms: _287  and  _288
REMARK  119  A    between atoms: _291  and  _293
REMARK  120  A    between atoms: _293  and  _294
REMARK  121  A    between atoms: _296  and  _298
REMARK  122  A    between atoms: _298  and  _299
REMARK  123  A    between atoms: _302  and  _304
REMARK  124  A    between atoms: _304  and  _305
REMARK  125  A    between atoms: _304  and  _307
REMARK  126  A    between atoms: _307  and  _308
REMARK  127  A    between atoms: _311  and  _313
REMARK  128  A    between atoms: _313  and  _314
REMARK  129  A    between atoms: _313  and  _316
REMARK  130  A    between atoms: _316  and  _317
REMARK  131  A    between atoms: _320  and  _322
REMARK  132  A    between atoms: _322  and  _323
REMARK  133  A    between atoms: _322  and  _325
REMARK  134  A    between atoms: _325  and  _326
REMARK  135  A    between atoms: _329  and  _331
REMARK  136  A    between atoms: _331  and  _332
REMARK  137  A    between atoms: _331  and  _334
REMARK  138  A    between atoms: _337  and  _339
REMARK  139  A    between atoms: _339  and  _340
REMARK  140  A    between atoms: _339  and  _342
REMARK  141  A    between atoms: _342  and  _343
REMARK  142  A    between atoms: _343  and  _344
REMARK  143  A    between atoms: _344  and  _345
REMARK  144  A    between atoms: _345  and  _346
REMARK  145  A    between atoms: _350  and  _352
REMARK  146  A    between atoms: _352  and  _353
REMARK  147  A    between atoms: _352  and  _355
REMARK  148  A    between atoms: _355  and  _356
REMARK  149  A    between atoms: _356  and  _357
REMARK  150  A    between atoms: _359  and  _361
REMARK  151  A    between atoms: _361  and  _362
REMARK  152  A    between atoms: _361  and  _364
REMARK  153  A    between atoms: _364  and  _365
REMARK  154  A    between atoms: _368  and  _370
REMARK  155  A    between atoms: _370  and  _371
REMARK  156  A    between atoms: _373  and  _375
REMARK  157  A    between atoms: _375  and  _376
REMARK  158  A    between atoms: _378  and  _380
REMARK  159  A    between atoms: _380  and  _381
REMARK  160  A    between atoms: _380  and  _383
REMARK  161  A    between atoms: _383  and  _384
REMARK  162  A    between atoms: _387  and  _389
REMARK  163  A    between atoms: _389  and  _390
REMARK  164  A    between atoms: _392  and  _394
REMARK  165  A    between atoms: _394  and  _395
REMARK  166  A    between atoms: _397  and  _399
REMARK  167  A    between atoms: _399  and  _400
REMARK  168  A    between atoms: _399  and  _402
REMARK  169  A    between atoms: _402  and  _403
REMARK  170  A    between atoms: _409  and  _411
REMARK  171  A    between atoms: _411  and  _412
REMARK  172  A    between atoms: _411  and  _414
REMARK  173  A    between atoms: _414  and  _415
REMARK  174  A    between atoms: _418  and  _420
REMARK  175  A    between atoms: _420  and  _421
REMARK  176  A    between atoms: _420  and  _423
REMARK  177  A    between atoms: _426  and  _428
REMARK  178  A    between atoms: _428  and  _429
REMARK  179  A    between atoms: _428  and  _431
REMARK  180  A    between atoms: _431  and  _432
REMARK  181  A    between atoms: _436  and  _437
REMARK  182  A    between atoms: _442  and  _444
REMARK  183  A    between atoms: _444  and  _445
REMARK  184  A    between atoms: _444  and  _447
REMARK  185  A    between atoms: _447  and  _448
REMARK  186  A    between atoms: _452  and  _453
REMARK  187  A    between atoms: _458  and  _460
REMARK  188  A    between atoms: _460  and  _461
REMARK  189  A    between atoms: _460  and  _463
REMARK  190  A    between atoms: _466  and  _468
REMARK  191  A    between atoms: _468  and  _469
REMARK  192  A    between atoms: _468  and  _471
REMARK  193  A    between atoms: _471  and  _472
REMARK  194  A    between atoms: _477  and  _479
REMARK  195  A    between atoms: _479  and  _480
REMARK  196  A    between atoms: _479  and  _482
REMARK  197  A    between atoms: _482  and  _483
REMARK  198  A    between atoms: _486  and  _488
REMARK  199  A    between atoms: _488  and  _489
REMARK  200  A    between atoms: _488  and  _491
REMARK  201  A    between atoms: _491  and  _492
REMARK  202  A    between atoms: _495  and  _497
REMARK  203  A    between atoms: _497  and  _498
REMARK  204  A    between atoms: _500  and  _502
REMARK  205  A    between atoms: _502  and  _503
REMARK  206  A    between atoms: _502  and  _505
REMARK  207  A    between atoms: _505  and  _506
REMARK  208  A    between atoms: _506  and  _507
REMARK  209  A    between atoms: _507  and  _508
REMARK  210  A    between atoms: _517  and  _519
REMARK  211  A    between atoms: _519  and  _520
REMARK  212  A    between atoms: _519  and  _522
REMARK  213  A    between atoms: _522  and  _523
REMARK                            x       y       z     vdW  Elec       q    Type
REMARK                         _______ _______ _______ _____ _____    ______ ____
ROOT
ATOM      1  C   GLY A   5      20.416  25.206  15.636  0.00  0.00    +0.243 C 
ATOM      2  N   ALA A   6      21.718  25.163  15.916  0.00  0.00    -0.297 N 
ATOM      3  H   ALA A   6      22.004  25.017  16.905  0.00  0.00    +0.150 HD
ATOM      4  O   GLY A   5      19.978  25.402  14.504  0.00  0.00    -0.273 OA
ENDROOT
BRANCH   2   5
ATOM      5  CA  ALA A   6      22.766  25.310  14.906  0.00  0.00    +0.149 C 
ATOM      6  CB  ALA A   6      23.783  26.372  15.363  0.00  0.00    +0.031 C 
BRANCH   5   7
ATOM      7  C   ALA A   6      23.465  23.976  14.648  0.00  0.00    +0.241 C 
ATOM      8  O   ALA A   6      24.034  23.377  15.565  0.00  0.00    -0.273 OA
ATOM      9  N   ASP A   7      23.405  23.500  13.402  0.00  0.00    -0.297 N 
ATOM     10  H   ASP A   7      22.818  23.991  12.698  0.00  0.00    +0.150 HD
BRANCH   9  11
ATOM     11  CA  ASP A   7      24.152  22.296  13.003  0.00  0.00    +0.160 C 
BRANCH  11  12
ATOM     12  C   ASP A   7      25.649  22.501  13.220  0.00  0.00    +0.241 C 
ATOM     13  O   ASP A   7      26.352  21.594  13.666  0.00  0.00    -0.273 OA
ATOM     14  N   ASP A   8      26.119  23.691  12.853  0.00  0.00    -0.297 N 
ATOM     15  H   ASP A   8      25.435  24.445  12.639  0.00  0.00    +0.150 HD
BRANCH  14  16
ATOM     16  CA  ASP A   8      27.541  23.995  12.734  0.00  0.00    +0.160 C 
BRANCH  16  17
ATOM     17  C   ASP A   8      27.967  25.145  13.639  0.00  0.00    +0.241 C 
ATOM     18  N   THR A   9      29.211  25.058  14.112  0.00  0.00    -0.295 N 
ATOM     19  H   THR A   9      29.750  24.191  13.916  0.00  0.00    +0.150 HD
ATOM     20  O   ASP A   8      27.204  26.088  13.862  0.00  0.00    -0.273 OA
BRANCH  18  21
ATOM     21  CA  THR A   9      29.853  26.098  14.881  0.00  0.00    +0.176 C 
BRANCH  21  22
ATOM     22  C   THR A   9      30.342  27.184  13.921  0.00  0.00    +0.243 C 
ATOM     23  N   VAL A  10      29.930  28.420  14.182  0.00  0.00    -0.298 N 
ATOM     24  H   VAL A  10      29.333  28.582  15.018  0.00  0.00    +0.150 HD
ATOM     25  O   THR A   9      31.055  26.905  12.959  0.00  0.00    -0.273 OA
BRANCH  23  26
ATOM     26  CA  VAL A  10      30.282  29.554  13.344  0.00  0.00    +0.137 C 
BRANCH  26  27
ATOM     27  CB  VAL A  10      29.082  30.063  12.523  0.00  0.00    +0.026 C 
ATOM     28  CG2 VAL A  10      28.289  28.897  11.926  0.00  0.00    +0.002 C 
ATOM     29  CG1 VAL A  10      29.571  31.008  11.415  0.00  0.00    +0.002 C 
ENDBRANCH  26  27
BRANCH  26  30
ATOM     30  C   VAL A  10      30.784  30.678  14.241  0.00  0.00    +0.227 C 
ATOM     31  O   VAL A  10      30.074  31.089  15.163  0.00  0.00    -0.286 OA
ENDBRANCH  26  30
ENDBRANCH  23  26
ENDBRANCH  21  22
BRANCH  21  32
ATOM     32  CB  THR A   9      31.028  25.513  15.692  0.00  0.00    +0.137 C 
ATOM     33  CG2 THR A   9      31.824  26.611  16.397  0.00  0.00    +0.034 C 
BRANCH  32  34
ATOM     34  OG1 THR A   9      30.520  24.564  16.656  0.00  0.00    -0.382 OA
ATOM     35  HG1 THR A   9      30.049  23.834  16.182  0.00  0.00    +0.210 HD
ENDBRANCH  32  34
ENDBRANCH  21  32
ENDBRANCH  18  21
ENDBRANCH  16  17
BRANCH  16  36
ATOM     36  CB  ASP A   8      27.866  24.416  11.302  0.00  0.00    +0.143 C 
BRANCH  36  37
ATOM     37  CG  ASP A   8      27.511  23.368  10.284  0.00  0.00    +0.367 C 
ATOM     38  OD2 ASP A   8      27.822  22.183  10.523  0.00  0.00    -0.246 OA
ATOM     39  OD1 ASP A   8      26.944  23.748   9.229  0.00  0.00    -0.246 OA
ENDBRANCH  36  37
ENDBRANCH  16  36
ENDBRANCH  14  16
ENDBRANCH  11  12
BRANCH  11  40
ATOM     40  CB  ASP A   7      23.973  21.993  11.517  0.00  0.00    +0.143 C 
BRANCH  40  41
ATOM     41  CG  ASP A   7      22.569  21.555  11.143  0.00  0.00    +0.367 C 
ATOM     42  OD2 ASP A   7      21.690  21.359  12.023  0.00  0.00    -0.246 OA
ATOM     43  OD1 ASP A   7      22.359  21.392   9.922  0.00  0.00    -0.246 OA
ENDBRANCH  40  41
ENDBRANCH  11  40
ENDBRANCH   9  11
ENDBRANCH   5   7
ENDBRANCH   2   5
BRANCH   1  44
ATOM     44  CA  GLY A   5      19.450  25.008  16.800  0.00  0.00    +0.176 C 
BRANCH  44  46
ATOM     45  C   THR A   4      20.561  23.684  18.543  0.00  0.00    +0.243 C 
ATOM     46  N   GLY A   5      20.079  24.850  18.121  0.00  0.00    -0.295 N 
ATOM     47  H   GLY A   5      20.149  25.678  18.746  0.00  0.00    +0.150 HD
ATOM     48  O   THR A   4      20.480  22.648  17.892  0.00  0.00    -0.273 OA
BRANCH  45  49
ATOM     49  CA  THR A   4      21.283  23.681  19.894  0.00  0.00    +0.176 C 
BRANCH  49  51
ATOM     50  C   ASP A   3      22.736  25.605  19.627  0.00  0.00    +0.241 C 
ATOM     51  N   THR A   4      21.757  25.008  20.296  0.00  0.00    -0.295 N 
ATOM     52  H   THR A   4      21.323  25.486  21.112  0.00  0.00    +0.150 HD
ATOM     53  O   ASP A   3      23.200  25.133  18.590  0.00  0.00    -0.273 OA
BRANCH  50  54
ATOM     54  CA  ASP A   3      23.227  26.954  20.175  0.00  0.00    +0.160 C 
BRANCH  54  57
ATOM     55  C   LEU A   2      24.299  27.280  22.340  0.00  0.00    +0.241 C 
ATOM     56  O   LEU A   2      23.281  27.695  22.884  0.00  0.00    -0.273 OA
ATOM     57  N   ASP A   3      24.311  26.759  21.119  0.00  0.00    -0.297 N 
ATOM     58  H   ASP A   3      25.130  26.188  20.828  0.00  0.00    +0.150 HD
BRANCH  55  59
ATOM     59  CA  LEU A   2      25.644  27.333  23.054  0.00  0.00    +0.149 C 
BRANCH  59  61
ATOM     60  C   LEU A   1      26.386  29.498  22.218  0.00  0.00    +0.238 C 
ATOM     61  N   LEU A   2      26.005  28.738  23.241  0.00  0.00    -0.297 N 
ATOM     62  H   LEU A   2      25.963  29.152  24.194  0.00  0.00    +0.150 HD
ATOM     63  O   LEU A   1      26.628  29.047  21.083  0.00  0.00    -0.274 OA
BRANCH  60  64
ATOM     64  CA  LEU A   1      26.531  30.994  22.504  0.00  0.00    +0.145 C 
BRANCH  64  65
ATOM     65  N   LEU A   1      27.854  31.420  22.169  0.00  0.00    -0.238 NA
ATOM     66  H   LEU A   1      28.045  31.687  21.182  0.00  0.00    +0.142 HD
ENDBRANCH  64  65
BRANCH  64  67
ATOM     67  CB  LEU A   1      25.546  31.791  21.645  0.00  0.00    +0.026 C 
BRANCH  67  68
ATOM     68  CG  LEU A   1      24.058  31.578  21.886  0.00  0.00    +0.002 C 
ATOM     69  CD2 LEU A   1      23.662  32.104  23.234  0.00  0.00    +0.000 C 
ATOM     70  CD1 LEU A   1      23.267  32.276  20.783  0.00  0.00    +0.000 C 
ENDBRANCH  67  68
ENDBRANCH  64  67
ENDBRANCH  60  64
ENDBRANCH  59  61
BRANCH  59  71
ATOM     71  CB  LEU A   2      25.588  26.580  24.384  0.00  0.00    +0.029 C 
BRANCH  71  72
ATOM     72  CG  LEU A   2      26.864  26.606  25.231  0.00  0.00    +0.002 C 
ATOM     73  CD2 LEU A   2      26.613  25.885  26.566  0.00  0.00    +0.000 C 
ATOM     74  CD1 LEU A   2      28.060  26.028  24.469  0.00  0.00    +0.000 C 
ENDBRANCH  71  72
ENDBRANCH  59  71
ENDBRANCH  55  59
ENDBRANCH  54  57
BRANCH  54  75
ATOM     75  CB  ASP A   3      23.722  27.875  19.043  0.00  0.00    +0.143 C 
BRANCH  75  76
ATOM     76  CG  ASP A   3      22.607  28.306  18.096  0.00  0.00    +0.367 C 
ATOM     77  OD2 ASP A   3      21.498  27.735  18.175  0.00  0.00    -0.246 OA
ATOM     78  OD1 ASP A   3      22.850  29.222  17.275  0.00  0.00    -0.246 OA
ENDBRANCH  75  76
ENDBRANCH  54  75
ENDBRANCH  50  54
ENDBRANCH  49  51
BRANCH  49  79
ATOM     79  CB  THR A   4      20.398  23.033  20.966  0.00  0.00    +0.137 C 
ATOM     80  CG2 THR A   4      21.215  22.776  22.221  0.00  0.00    +0.034 C 
BRANCH  79  81
ATOM     81  OG1 THR A   4      19.288  23.882  21.269  0.00  0.00    -0.382 OA
ATOM     82  HG1 THR A   4      18.752  24.027  20.450  0.00  0.00    +0.210 HD
ENDBRANCH  79  81
ENDBRANCH  49  79
ENDBRANCH  45  49
ENDBRANCH  44  46
ENDBRANCH   1  44
TORSDOF 35
REMARK  Name = ../refined-set-2016/3gi5/3gi5_pocket.pdb
REMARK  213 active torsions:
REMARK  status: ('A' for Active; 'I' for Inactive)
REMARK    1  A    between atoms: _1  and  _3
REMARK    2  A    between atoms: _3  and  _4
REMARK    3  A    between atoms: _3  and  _6
REMARK    4  A    between atoms: _6  and  _7
REMARK    5  A    between atoms: _7  and  _8
REMARK    6  A    between atoms: _8  and  _9
REMARK    7  A    between atoms: _18  and  _20
REMARK    8  A    between atoms: _20  and  _21
REMARK    9  A    between atoms: _20  and  _23
REMARK   10  A    between atoms: _23  and  _24
REMARK   11  A    between atoms: _27  and  _29
REMARK   12  A    between atoms: _29  and  _30
REMARK   13  A    between atoms: _29  and  _32
REMARK   14  A    between atoms: _32  and  _33
REMARK   15  A    between atoms: _36  and  _38
REMARK   16  A    between atoms: _38  and  _39
REMARK   17  A    between atoms: _38  and  _41
REMARK   18  A    between atoms: _41  and  _42
REMARK   19  A    between atoms: _45  and  _47
REMARK   20  A    between atoms: _47  and  _48
REMARK   21  A    between atoms: _47  and  _50
REMARK   22  A    between atoms: _50  and  _51
REMARK   23  A    between atoms: _54  and  _56
REMARK   24  A    between atoms: _56  and  _57
REMARK   25  A    between atoms: _59  and  _61
REMARK   26  A    between atoms: _61  and  _62
REMARK   27  A    between atoms: _65  and  _67
REMARK   28  A    between atoms: _67  and  _68
REMARK   29  A    between atoms: _67  and  _70
REMARK   30  A    between atoms: _70  and  _71
REMARK   31  A    between atoms: _74  and  _76
REMARK   32  A    between atoms: _76  and  _77
REMARK   33  A    between atoms: _76  and  _79
REMARK   34  A    between atoms: _79  and  _80
REMARK   35  A    between atoms: _83  and  _85
REMARK   36  A    between atoms: _85  and  _86
REMARK   37  A    between atoms: _85  and  _88
REMARK   38  A    between atoms: _88  and  _89
REMARK   39  A    between atoms: _92  and  _94
REMARK   40  A    between atoms: _94  and  _95
REMARK   41  A    between atoms: _94  and  _97
REMARK   42  A    between atoms: _100  and  _102
REMARK   43  A    between atoms: _102  and  _103
REMARK   44  A    between atoms: _102  and  _105
REMARK   45  A    between atoms: _105  and  _106
REMARK   46  A    between atoms: _106  and  _107
REMARK   47  A    between atoms: _107  and  _108
REMARK   48  A    between atoms: _108  and  _109
REMARK   49  A    between atoms: _113  and  _115
REMARK   50  A    between atoms: _115  and  _116
REMARK   51  A    between atoms: _115  and  _118
REMARK   52  A    between atoms: _118  and  _119
REMARK   53  A    between atoms: _122  and  _124
REMARK   54  A    between atoms: _124  and  _125
REMARK   55  A    between atoms: _127  and  _129
REMARK   56  A    between atoms: _129  and  _130
REMARK   57  A    between atoms: _132  and  _134
REMARK   58  A    between atoms: _134  and  _135
REMARK   59  A    between atoms: _134  and  _137
REMARK   60  A    between atoms: _137  and  _138
REMARK   61  A    between atoms: _141  and  _143
REMARK   62  A    between atoms: _143  and  _144
REMARK   63  A    between atoms: _146  and  _148
REMARK   64  A    between atoms: _148  and  _149
REMARK   65  A    between atoms: _151  and  _153
REMARK   66  A    between atoms: _153  and  _154
REMARK   67  A    between atoms: _153  and  _156
REMARK   68  A    between atoms: _156  and  _157
REMARK   69  A    between atoms: _163  and  _165
REMARK   70  A    between atoms: _165  and  _166
REMARK   71  A    between atoms: _165  and  _168
REMARK   72  A    between atoms: _168  and  _169
REMARK   73  A    between atoms: _173  and  _174
REMARK   74  A    between atoms: _179  and  _181
REMARK   75  A    between atoms: _181  and  _182
REMARK   76  A    between atoms: _181  and  _184
REMARK   77  A    between atoms: _187  and  _189
REMARK   78  A    between atoms: _189  and  _190
REMARK   79  A    between atoms: _189  and  _192
REMARK   80  A    between atoms: _192  and  _193
REMARK   81  A    between atoms: _198  and  _200
REMARK   82  A    between atoms: _200  and  _201
REMARK   83  A    between atoms: _200  and  _203
REMARK   84  A    between atoms: _203  and  _204
REMARK   85  A    between atoms: _207  and  _209
REMARK   86  A    between atoms: _209  and  _210
REMARK   87  A    between atoms: _209  and  _212
REMARK   88  A    between atoms: _212  and  _213
REMARK   89  A    between atoms: _216  and  _218
REMARK   90  A    between atoms: _218  and  _219
REMARK   91  A    between atoms: _221  and  _223
REMARK   92  A    between atoms: _223  and  _224
REMARK   93  A    between atoms: _223  and  _226
REMARK   94  A    between atoms: _226  and  _227
REMARK   95  A    between atoms: _227  and  _228
REMARK   96  A    between atoms: _228  and  _229
REMARK   97  A    between atoms: _238  and  _240
REMARK   98  A    between atoms: _240  and  _241
REMARK   99  A    between atoms: _240  and  _243
REMARK  100  A    between atoms: _243  and  _244
REMARK  101  A    between atoms: _244  and  _245
REMARK  102  A    between atoms: _245  and  _246
REMARK  103  A    between atoms: _255  and  _257
REMARK  104  A    between atoms: _257  and  _258
REMARK  105  A    between atoms: _257  and  _260
REMARK  106  A    between atoms: _260  and  _261
REMARK  107  A    between atoms: _264  and  _266
REMARK  108  A    between atoms: _266  and  _267
REMARK  109  A    between atoms: _266  and  _269
REMARK  110  A    between atoms: _269  and  _270
REMARK  111  A    between atoms: _273  and  _275
REMARK  112  A    between atoms: _275  and  _276
REMARK  113  A    between atoms: _275  and  _278
REMARK  114  A    between atoms: _278  and  _279
REMARK  115  A    between atoms: _282  and  _284
REMARK  116  A    between atoms: _284  and  _285
REMARK  117  A    between atoms: _284  and  _287
REMARK  118  A    between atoms: _287  and  _288
REMARK  119  A    between atoms: _291  and  _293
REMARK  120  A    between atoms: _293  and  _294
REMARK  121  A    between atoms: _296  and  _298
REMARK  122  A    between atoms: _298  and  _299
REMARK  123  A    between atoms: _302  and  _304
REMARK  124  A    between atoms: _304  and  _305
REMARK  125  A    between atoms: _304  and  _307
REMARK  126  A    between atoms: _307  and  _308
REMARK  127  A    between atoms: _311  and  _313
REMARK  128  A    between atoms: _313  and  _314
REMARK  129  A    between atoms: _313  and  _316
REMARK  130  A    between atoms: _316  and  _317
REMARK  131  A    between atoms: _320  and  _322
REMARK  132  A    between atoms: _322  and  _323
REMARK  133  A    between atoms: _322  and  _325
REMARK  134  A    between atoms: _325  and  _326
REMARK  135  A    between atoms: _329  and  _331
REMARK  136  A    between atoms: _331  and  _332
REMARK  137  A    between atoms: _331  and  _334
REMARK  138  A    between atoms: _337  and  _339
REMARK  139  A    between atoms: _339  and  _340
REMARK  140  A    between atoms: _339  and  _342
REMARK  141  A    between atoms: _342  and  _343
REMARK  142  A    between atoms: _343  and  _344
REMARK  143  A    between atoms: _344  and  _345
REMARK  144  A    between atoms: _345  and  _346
REMARK  145  A    between atoms: _350  and  _352
REMARK  146  A    between atoms: _352  and  _353
REMARK  147  A    between atoms: _352  and  _355
REMARK  148  A    between atoms: _355  and  _356
REMARK  149  A    between atoms: _356  and  _357
REMARK  150  A    between atoms: _359  and  _361
REMARK  151  A    between atoms: _361  and  _362
REMARK  152  A    between atoms: _361  and  _364
REMARK  153  A    between atoms: _364  and  _365
REMARK  154  A    between atoms: _368  and  _370
REMARK  155  A    between atoms: _370  and  _371
REMARK  156  A    between atoms: _373  and  _375
REMARK  157  A    between atoms: _375  and  _376
REMARK  158  A    between atoms: _378  and  _380
REMARK  159  A    between atoms: _380  and  _381
REMARK  160  A    between atoms: _380  and  _383
REMARK  161  A    between atoms: _383  and  _384
REMARK  162  A    between atoms: _387  and  _389
REMARK  163  A    between atoms: _389  and  _390
REMARK  164  A    between atoms: _392  and  _394
REMARK  165  A    between atoms: _394  and  _395
REMARK  166  A    between atoms: _397  and  _399
REMARK  167  A    between atoms: _399  and  _400
REMARK  168  A    between atoms: _399  and  _402
REMARK  169  A    between atoms: _402  and  _403
REMARK  170  A    between atoms: _409  and  _411
REMARK  171  A    between atoms: _411  and  _412
REMARK  172  A    between atoms: _411  and  _414
REMARK  173  A    between atoms: _414  and  _415
REMARK  174  A    between atoms: _418  and  _420
REMARK  175  A    between atoms: _420  and  _421
REMARK  176  A    between atoms: _420  and  _423
REMARK  177  A    between atoms: _426  and  _428
REMARK  178  A    between atoms: _428  and  _429
REMARK  179  A    between atoms: _428  and  _431
REMARK  180  A    between atoms: _431  and  _432
REMARK  181  A    between atoms: _436  and  _437
REMARK  182  A    between atoms: _442  and  _444
REMARK  183  A    between atoms: _444  and  _445
REMARK  184  A    between atoms: _444  and  _447
REMARK  185  A    between atoms: _447  and  _448
REMARK  186  A    between atoms: _452  and  _453
REMARK  187  A    between atoms: _458  and  _460
REMARK  188  A    between atoms: _460  and  _461
REMARK  189  A    between atoms: _460  and  _463
REMARK  190  A    between atoms: _466  and  _468
REMARK  191  A    between atoms: _468  and  _469
REMARK  192  A    between atoms: _468  and  _471
REMARK  193  A    between atoms: _471  and  _472
REMARK  194  A    between atoms: _477  and  _479
REMARK  195  A    between atoms: _479  and  _480
REMARK  196  A    between atoms: _479  and  _482
REMARK  197  A    between atoms: _482  and  _483
REMARK  198  A    between atoms: _486  and  _488
REMARK  199  A    between atoms: _488  and  _489
REMARK  200  A    between atoms: _488  and  _491
REMARK  201  A    between atoms: _491  and  _492
REMARK  202  A    between atoms: _495  and  _497
REMARK  203  A    between atoms: _497  and  _498
REMARK  204  A    between atoms: _500  and  _502
REMARK  205  A    between atoms: _502  and  _503
REMARK  206  A    between atoms: _502  and  _505
REMARK  207  A    between atoms: _505  and  _506
REMARK  208  A    between atoms: _506  and  _507
REMARK  209  A    between atoms: _507  and  _508
REMARK  210  A    between atoms: _517  and  _519
REMARK  211  A    between atoms: _519  and  _520
REMARK  212  A    between atoms: _519  and  _522
REMARK  213  A    between atoms: _522  and  _523
REMARK                            x       y       z     vdW  Elec       q    Type
REMARK                         _______ _______ _______ _____ _____    ______ ____
ROOT
ATOM      1  CG  LYS A   1      30.641  25.589   3.492  0.00  0.00    -0.000 C 
ENDROOT
BRANCH   1   2
ATOM      2  CB  LYS A   1      31.787  26.572   3.282  0.00  0.00    +0.025 C 
BRANCH   2   3
ATOM      3  CA  LYS A   1      31.741  27.362   1.971  0.00  0.00    +0.133 C 
BRANCH   3   4
ATOM      4  N   LYS A   1      32.998  28.066   1.786  0.00  0.00    -0.239 NA
ATOM      5  H   LYS A   1      33.129  28.984   2.258  0.00  0.00    +0.142 HD
ENDBRANCH   3   4
BRANCH   3   6
ATOM      6  C   LYS A   1      30.645  28.412   2.029  0.00  0.00    +0.224 C 
ATOM      7  O   LYS A   1      30.915  29.575   2.322  0.00  0.00    -0.287 OA
ENDBRANCH   3   6
ENDBRANCH   2   3
ENDBRANCH   1   2
BRANCH   1   8
ATOM      8  CD  LYS A   1      30.669  24.991   4.904  0.00  0.00    -0.024 C 
BRANCH   8   9
ATOM      9  CE  LYS A   1      29.916  23.669   4.973  0.00  0.00    -0.086 C 
BRANCH   9  10
ATOM     10  NZ  LYS A   1      29.339  23.386   6.332  0.00  0.00    +0.380 N 
ATOM     11  HZ1 LYS A   1      30.107  23.348   7.032  0.00  0.00    -0.089 HD
ATOM     12  HZ2 LYS A   1      28.672  24.142   6.588  0.00  0.00    -0.089 HD
ATOM     13  HZ3 LYS A   1      28.840  22.474   6.312  0.00  0.00    -0.089 HD
ENDBRANCH   9  10
ENDBRANCH   8   9
ENDBRANCH   1   8
TORSDOF 7
REMARK  Name = ../refined-set-2016/3gi5/3gi5_pocket.pdb
REMARK  213 active torsions:
REMARK  status: ('A' for Active; 'I' for Inactive)
REMARK    1  A    between atoms: _1  and  _3
REMARK    2  A    between atoms: _3  and  _4
REMARK    3  A    between atoms: _3  and  _6
REMARK    4  A    between atoms: _6  and  _7
REMARK    5  A    between atoms: _7  and  _8
REMARK    6  A    between atoms: _8  and  _9
REMARK    7  A    between atoms: _18  and  _20
REMARK    8  A    between atoms: _20  and  _21
REMARK    9  A    between atoms: _20  and  _23
REMARK   10  A    between atoms: _23  and  _24
REMARK   11  A    between atoms: _27  and  _29
REMARK   12  A    between atoms: _29  and  _30
REMARK   13  A    between atoms: _29  and  _32
REMARK   14  A    between atoms: _32  and  _33
REMARK   15  A    between atoms: _36  and  _38
REMARK   16  A    between atoms: _38  and  _39
REMARK   17  A    between atoms: _38  and  _41
REMARK   18  A    between atoms: _41  and  _42
REMARK   19  A    between atoms: _45  and  _47
REMARK   20  A    between atoms: _47  and  _48
REMARK   21  A    between atoms: _47  and  _50
REMARK   22  A    between atoms: _50  and  _51
REMARK   23  A    between atoms: _54  and  _56
REMARK   24  A    between atoms: _56  and  _57
REMARK   25  A    between atoms: _59  and  _61
REMARK   26  A    between atoms: _61  and  _62
REMARK   27  A    between atoms: _65  and  _67
REMARK   28  A    between atoms: _67  and  _68
REMARK   29  A    between atoms: _67  and  _70
REMARK   30  A    between atoms: _70  and  _71
REMARK   31  A    between atoms: _74  and  _76
REMARK   32  A    between atoms: _76  and  _77
REMARK   33  A    between atoms: _76  and  _79
REMARK   34  A    between atoms: _79  and  _80
REMARK   35  A    between atoms: _83  and  _85
REMARK   36  A    between atoms: _85  and  _86
REMARK   37  A    between atoms: _85  and  _88
REMARK   38  A    between atoms: _88  and  _89
REMARK   39  A    between atoms: _92  and  _94
REMARK   40  A    between atoms: _94  and  _95
REMARK   41  A    between atoms: _94  and  _97
REMARK   42  A    between atoms: _100  and  _102
REMARK   43  A    between atoms: _102  and  _103
REMARK   44  A    between atoms: _102  and  _105
REMARK   45  A    between atoms: _105  and  _106
REMARK   46  A    between atoms: _106  and  _107
REMARK   47  A    between atoms: _107  and  _108
REMARK   48  A    between atoms: _108  and  _109
REMARK   49  A    between atoms: _113  and  _115
REMARK   50  A    between atoms: _115  and  _116
REMARK   51  A    between atoms: _115  and  _118
REMARK   52  A    between atoms: _118  and  _119
REMARK   53  A    between atoms: _122  and  _124
REMARK   54  A    between atoms: _124  and  _125
REMARK   55  A    between atoms: _127  and  _129
REMARK   56  A    between atoms: _129  and  _130
REMARK   57  A    between atoms: _132  and  _134
REMARK   58  A    between atoms: _134  and  _135
REMARK   59  A    between atoms: _134  and  _137
REMARK   60  A    between atoms: _137  and  _138
REMARK   61  A    between atoms: _141  and  _143
REMARK   62  A    between atoms: _143  and  _144
REMARK   63  A    between atoms: _146  and  _148
REMARK   64  A    between atoms: _148  and  _149
REMARK   65  A    between atoms: _151  and  _153
REMARK   66  A    between atoms: _153  and  _154
REMARK   67  A    between atoms: _153  and  _156
REMARK   68  A    between atoms: _156  and  _157
REMARK   69  A    between atoms: _163  and  _165
REMARK   70  A    between atoms: _165  and  _166
REMARK   71  A    between atoms: _165  and  _168
REMARK   72  A    between atoms: _168  and  _169
REMARK   73  A    between atoms: _173  and  _174
REMARK   74  A    between atoms: _179  and  _181
REMARK   75  A    between atoms: _181  and  _182
REMARK   76  A    between atoms: _181  and  _184
REMARK   77  A    between atoms: _187  and  _189
REMARK   78  A    between atoms: _189  and  _190
REMARK   79  A    between atoms: _189  and  _192
REMARK   80  A    between atoms: _192  and  _193
REMARK   81  A    between atoms: _198  and  _200
REMARK   82  A    between atoms: _200  and  _201
REMARK   83  A    between atoms: _200  and  _203
REMARK   84  A    between atoms: _203  and  _204
REMARK   85  A    between atoms: _207  and  _209
REMARK   86  A    between atoms: _209  and  _210
REMARK   87  A    between atoms: _209  and  _212
REMARK   88  A    between atoms: _212  and  _213
REMARK   89  A    between atoms: _216  and  _218
REMARK   90  A    between atoms: _218  and  _219
REMARK   91  A    between atoms: _221  and  _223
REMARK   92  A    between atoms: _223  and  _224
REMARK   93  A    between atoms: _223  and  _226
REMARK   94  A    between atoms: _226  and  _227
REMARK   95  A    between atoms: _227  and  _228
REMARK   96  A    between atoms: _228  and  _229
REMARK   97  A    between atoms: _238  and  _240
REMARK   98  A    between atoms: _240  and  _241
REMARK   99  A    between atoms: _240  and  _243
REMARK  100  A    between atoms: _243  and  _244
REMARK  101  A    between atoms: _244  and  _245
REMARK  102  A    between atoms: _245  and  _246
REMARK  103  A    between atoms: _255  and  _257
REMARK  104  A    between atoms: _257  and  _258
REMARK  105  A    between atoms: _257  and  _260
REMARK  106  A    between atoms: _260  and  _261
REMARK  107  A    between atoms: _264  and  _266
REMARK  108  A    between atoms: _266  and  _267
REMARK  109  A    between atoms: _266  and  _269
REMARK  110  A    between atoms: _269  and  _270
REMARK  111  A    between atoms: _273  and  _275
REMARK  112  A    between atoms: _275  and  _276
REMARK  113  A    between atoms: _275  and  _278
REMARK  114  A    between atoms: _278  and  _279
REMARK  115  A    between atoms: _282  and  _284
REMARK  116  A    between atoms: _284  and  _285
REMARK  117  A    between atoms: _284  and  _287
REMARK  118  A    between atoms: _287  and  _288
REMARK  119  A    between atoms: _291  and  _293
REMARK  120  A    between atoms: _293  and  _294
REMARK  121  A    between atoms: _296  and  _298
REMARK  122  A    between atoms: _298  and  _299
REMARK  123  A    between atoms: _302  and  _304
REMARK  124  A    between atoms: _304  and  _305
REMARK  125  A    between atoms: _304  and  _307
REMARK  126  A    between atoms: _307  and  _308
REMARK  127  A    between atoms: _311  and  _313
REMARK  128  A    between atoms: _313  and  _314
REMARK  129  A    between atoms: _313  and  _316
REMARK  130  A    between atoms: _316  and  _317
REMARK  131  A    between atoms: _320  and  _322
REMARK  132  A    between atoms: _322  and  _323
REMARK  133  A    between atoms: _322  and  _325
REMARK  134  A    between atoms: _325  and  _326
REMARK  135  A    between atoms: _329  and  _331
REMARK  136  A    between atoms: _331  and  _332
REMARK  137  A    between atoms: _331  and  _334
REMARK  138  A    between atoms: _337  and  _339
REMARK  139  A    between atoms: _339  and  _340
REMARK  140  A    between atoms: _339  and  _342
REMARK  141  A    between atoms: _342  and  _343
REMARK  142  A    between atoms: _343  and  _344
REMARK  143  A    between atoms: _344  and  _345
REMARK  144  A    between atoms: _345  and  _346
REMARK  145  A    between atoms: _350  and  _352
REMARK  146  A    between atoms: _352  and  _353
REMARK  147  A    between atoms: _352  and  _355
REMARK  148  A    between atoms: _355  and  _356
REMARK  149  A    between atoms: _356  and  _357
REMARK  150  A    between atoms: _359  and  _361
REMARK  151  A    between atoms: _361  and  _362
REMARK  152  A    between atoms: _361  and  _364
REMARK  153  A    between atoms: _364  and  _365
REMARK  154  A    between atoms: _368  and  _370
REMARK  155  A    between atoms: _370  and  _371
REMARK  156  A    between atoms: _373  and  _375
REMARK  157  A    between atoms: _375  and  _376
REMARK  158  A    between atoms: _378  and  _380
REMARK  159  A    between atoms: _380  and  _381
REMARK  160  A    between atoms: _380  and  _383
REMARK  161  A    between atoms: _383  and  _384
REMARK  162  A    between atoms: _387  and  _389
REMARK  163  A    between atoms: _389  and  _390
REMARK  164  A    between atoms: _392  and  _394
REMARK  165  A    between atoms: _394  and  _395
REMARK  166  A    between atoms: _397  and  _399
REMARK  167  A    between atoms: _399  and  _400
REMARK  168  A    between atoms: _399  and  _402
REMARK  169  A    between atoms: _402  and  _403
REMARK  170  A    between atoms: _409  and  _411
REMARK  171  A    between atoms: _411  and  _412
REMARK  172  A    between atoms: _411  and  _414
REMARK  173  A    between atoms: _414  and  _415
REMARK  174  A    between atoms: _418  and  _420
REMARK  175  A    between atoms: _420  and  _421
REMARK  176  A    between atoms: _420  and  _423
REMARK  177  A    between atoms: _426  and  _428
REMARK  178  A    between atoms: _428  and  _429
REMARK  179  A    between atoms: _428  and  _431
REMARK  180  A    between atoms: _431  and  _432
REMARK  181  A    between atoms: _436  and  _437
REMARK  182  A    between atoms: _442  and  _444
REMARK  183  A    between atoms: _444  and  _445
REMARK  184  A    between atoms: _444  and  _447
REMARK  185  A    between atoms: _447  and  _448
REMARK  186  A    between atoms: _452  and  _453
REMARK  187  A    between atoms: _458  and  _460
REMARK  188  A    between atoms: _460  and  _461
REMARK  189  A    between atoms: _460  and  _463
REMARK  190  A    between atoms: _466  and  _468
REMARK  191  A    between atoms: _468  and  _469
REMARK  192  A    between atoms: _468  and  _471
REMARK  193  A    between atoms: _471  and  _472
REMARK  194  A    between atoms: _477  and  _479
REMARK  195  A    between atoms: _479  and  _480
REMARK  196  A    between atoms: _479  and  _482
REMARK  197  A    between atoms: _482  and  _483
REMARK  198  A    between atoms: _486  and  _488
REMARK  199  A    between atoms: _488  and  _489
REMARK  200  A    between atoms: _488  and  _491
REMARK  201  A    between atoms: _491  and  _492
REMARK  202  A    between atoms: _495  and  _497
REMARK  203  A    between atoms: _497  and  _498
REMARK  204  A    between atoms: _500  and  _502
REMARK  205  A    between atoms: _502  and  _503
REMARK  206  A    between atoms: _502  and  _505
REMARK  207  A    between atoms: _505  and  _506
REMARK  208  A    between atoms: _506  and  _507
REMARK  209  A    between atoms: _507  and  _508
REMARK  210  A    between atoms: _517  and  _519
REMARK  211  A    between atoms: _519  and  _520
REMARK  212  A    between atoms: _519  and  _522
REMARK  213  A    between atoms: _522  and  _523
REMARK                            x       y       z     vdW  Elec       q    Type
REMARK                         _______ _______ _______ _____ _____    ______ ____
ROOT
ATOM      1  CA  ILE A   4      17.175  32.759   9.117  0.00  0.00    +0.149 C 
ENDROOT
BRANCH   1   2
ATOM      2  C   ILE A   4      17.036  33.924   8.121  0.00  0.00    +0.241 C 
ATOM      3  N   GLY A   5      18.126  34.650   7.886  0.00  0.00    -0.295 N 
ATOM      4  H   GLY A   5      19.034  34.346   8.292  0.00  0.00    +0.150 HD
ATOM      5  O   ILE A   4      15.961  34.140   7.564  0.00  0.00    -0.273 OA
BRANCH   3   6
ATOM      6  CA  GLY A   5      18.081  35.865   7.071  0.00  0.00    +0.176 C 
BRANCH   6   7
ATOM      7  C   GLY A   5      18.533  35.698   5.639  0.00  0.00    +0.243 C 
ATOM      8  N   GLY A   6      19.042  34.513   5.313  0.00  0.00    -0.295 N 
ATOM      9  H   GLY A   6      19.036  33.753   6.023  0.00  0.00    +0.150 HD
ATOM     10  O   GLY A   5      18.413  36.633   4.835  0.00  0.00    -0.273 OA
BRANCH   8  11
ATOM     11  CA  GLY A   6      19.603  34.243   4.009  0.00  0.00    +0.176 C 
BRANCH  11  12
ATOM     12  C   GLY A   6      20.895  33.469   4.134  0.00  0.00    +0.243 C 
ATOM     13  O   GLY A   6      21.170  32.872   5.178  0.00  0.00    -0.273 OA
ATOM     14  N   PHE A   7      21.684  33.497   3.066  0.00  0.00    -0.298 N 
ATOM     15  H   PHE A   7      21.419  34.107   2.266  0.00  0.00    +0.150 HD
BRANCH  14  16
ATOM     16  CA  PHE A   7      22.908  32.707   2.969  0.00  0.00    +0.141 C 
BRANCH  16  17
ATOM     17  C   PHE A   7      24.149  33.601   3.000  0.00  0.00    +0.227 C 
ATOM     18  O   PHE A   7      24.133  34.733   2.494  0.00  0.00    -0.286 OA
ENDBRANCH  16  17
BRANCH  16  19
ATOM     19  CB  PHE A   7      22.883  31.854   1.698  0.00  0.00    +0.054 C 
BRANCH  19  20
ATOM     20  CG  PHE A   7      22.102  30.573   1.850  0.00  0.00    -0.020 A 
ATOM     21  CD2 PHE A   7      20.729  30.604   2.069  0.00  0.00    -0.004 A 
ATOM     22  CE2 PHE A   7      20.008  29.420   2.221  0.00  0.00    -0.000 A 
ATOM     23  CZ  PHE A   7      20.670  28.196   2.155  0.00  0.00    -0.000 A 
ATOM     24  CE1 PHE A   7      22.029  28.158   1.946  0.00  0.00    -0.000 A 
ATOM     25  CD1 PHE A   7      22.745  29.338   1.800  0.00  0.00    -0.004 A 
ENDBRANCH  19  20
ENDBRANCH  16  19
ENDBRANCH  14  16
ENDBRANCH  11  12
ENDBRANCH   8  11
ENDBRANCH   6   7
ENDBRANCH   3   6
ENDBRANCH   1   2
BRANCH   1  27
ATOM     26  C   GLY A   3      19.052  31.669   8.065  0.00  0.00    +0.243 C 
ATOM     27  N   ILE A   4      18.527  32.239   9.141  0.00  0.00    -0.297 N 
ATOM     28  H   ILE A   4      19.092  32.314  10.011  0.00  0.00    +0.150 HD
ATOM     29  O   GLY A   3      18.471  31.620   6.973  0.00  0.00    -0.273 OA
BRANCH  26  30
ATOM     30  CA  GLY A   3      20.445  31.092   8.222  0.00  0.00    +0.176 C 
BRANCH  30  33
ATOM     31  C   GLY A   2      21.833  29.728   6.759  0.00  0.00    +0.243 C 
ATOM     32  O   GLY A   2      22.485  29.273   7.688  0.00  0.00    -0.273 OA
ATOM     33  N   GLY A   3      20.879  30.627   6.918  0.00  0.00    -0.295 N 
ATOM     34  H   GLY A   3      20.419  31.019   6.072  0.00  0.00    +0.150 HD
BRANCH  31  35
ATOM     35  CA  GLY A   2      22.100  29.298   5.329  0.00  0.00    +0.176 C 
BRANCH  35  37
ATOM     36  C   ILE A   1      24.494  29.235   4.821  0.00  0.00    +0.238 C 
ATOM     37  N   GLY A   2      23.383  28.613   5.194  0.00  0.00    -0.296 N 
ATOM     38  H   GLY A   2      23.428  27.594   5.399  0.00  0.00    +0.150 HD
ATOM     39  O   ILE A   1      24.559  30.445   4.582  0.00  0.00    -0.274 OA
BRANCH  36  40
ATOM     40  CA  ILE A   1      25.728  28.352   4.730  0.00  0.00    +0.145 C 
BRANCH  40  41
ATOM     41  N   ILE A   1      26.713  28.905   3.803  0.00  0.00    -0.238 NA
ATOM     42  H   ILE A   1      26.947  29.917   3.857  0.00  0.00    +0.142 HD
ENDBRANCH  40  41
BRANCH  40  43
ATOM     43  CB  ILE A   1      26.307  28.115   6.145  0.00  0.00    +0.025 C 
ATOM     44  CG2 ILE A   1      27.487  27.153   6.089  0.00  0.00    +0.002 C 
BRANCH  43  45
ATOM     45  CG1 ILE A   1      26.751  29.425   6.818  0.00  0.00    +0.002 C 
ATOM     46  CD1 ILE A   1      27.148  29.264   8.240  0.00  0.00    +0.000 C 
ENDBRANCH  43  45
ENDBRANCH  40  43
ENDBRANCH  36  40
ENDBRANCH  35  37
ENDBRANCH  31  35
ENDBRANCH  30  33
ENDBRANCH  26  30
ENDBRANCH   1  27
BRANCH   1  47
ATOM     47  CB  ILE A   4      16.692  33.147  10.524  0.00  0.00    +0.027 C 
ATOM     48  CG2 ILE A   4      17.212  34.527  10.925  0.00  0.00    +0.002 C 
BRANCH  47  49
ATOM     49  CG1 ILE A   4      15.165  33.040  10.594  0.00  0.00    +0.002 C 
ATOM     50  CD1 ILE A   4      14.625  33.108  11.999  0.00  0.00    +0.000 C 
ENDBRANCH  47  49
ENDBRANCH   1  47
TORSDOF 20
REMARK  Name = ../refined-set-2016/3gi5/3gi5_pocket.pdb
REMARK  213 active torsions:
REMARK  status: ('A' for Active; 'I' for Inactive)
REMARK    1  A    between atoms: _1  and  _3
REMARK    2  A    between atoms: _3  and  _4
REMARK    3  A    between atoms: _3  and  _6
REMARK    4  A    between atoms: _6  and  _7
REMARK    5  A    between atoms: _7  and  _8
REMARK    6  A    between atoms: _8  and  _9
REMARK    7  A    between atoms: _18  and  _20
REMARK    8  A    between atoms: _20  and  _21
REMARK    9  A    between atoms: _20  and  _23
REMARK   10  A    between atoms: _23  and  _24
REMARK   11  A    between atoms: _27  and  _29
REMARK   12  A    between atoms: _29  and  _30
REMARK   13  A    between atoms: _29  and  _32
REMARK   14  A    between atoms: _32  and  _33
REMARK   15  A    between atoms: _36  and  _38
REMARK   16  A    between atoms: _38  and  _39
REMARK   17  A    between atoms: _38  and  _41
REMARK   18  A    between atoms: _41  and  _42
REMARK   19  A    between atoms: _45  and  _47
REMARK   20  A    between atoms: _47  and  _48
REMARK   21  A    between atoms: _47  and  _50
REMARK   22  A    between atoms: _50  and  _51
REMARK   23  A    between atoms: _54  and  _56
REMARK   24  A    between atoms: _56  and  _57
REMARK   25  A    between atoms: _59  and  _61
REMARK   26  A    between atoms: _61  and  _62
REMARK   27  A    between atoms: _65  and  _67
REMARK   28  A    between atoms: _67  and  _68
REMARK   29  A    between atoms: _67  and  _70
REMARK   30  A    between atoms: _70  and  _71
REMARK   31  A    between atoms: _74  and  _76
REMARK   32  A    between atoms: _76  and  _77
REMARK   33  A    between atoms: _76  and  _79
REMARK   34  A    between atoms: _79  and  _80
REMARK   35  A    between atoms: _83  and  _85
REMARK   36  A    between atoms: _85  and  _86
REMARK   37  A    between atoms: _85  and  _88
REMARK   38  A    between atoms: _88  and  _89
REMARK   39  A    between atoms: _92  and  _94
REMARK   40  A    between atoms: _94  and  _95
REMARK   41  A    between atoms: _94  and  _97
REMARK   42  A    between atoms: _100  and  _102
REMARK   43  A    between atoms: _102  and  _103
REMARK   44  A    between atoms: _102  and  _105
REMARK   45  A    between atoms: _105  and  _106
REMARK   46  A    between atoms: _106  and  _107
REMARK   47  A    between atoms: _107  and  _108
REMARK   48  A    between atoms: _108  and  _109
REMARK   49  A    between atoms: _113  and  _115
REMARK   50  A    between atoms: _115  and  _116
REMARK   51  A    between atoms: _115  and  _118
REMARK   52  A    between atoms: _118  and  _119
REMARK   53  A    between atoms: _122  and  _124
REMARK   54  A    between atoms: _124  and  _125
REMARK   55  A    between atoms: _127  and  _129
REMARK   56  A    between atoms: _129  and  _130
REMARK   57  A    between atoms: _132  and  _134
REMARK   58  A    between atoms: _134  and  _135
REMARK   59  A    between atoms: _134  and  _137
REMARK   60  A    between atoms: _137  and  _138
REMARK   61  A    between atoms: _141  and  _143
REMARK   62  A    between atoms: _143  and  _144
REMARK   63  A    between atoms: _146  and  _148
REMARK   64  A    between atoms: _148  and  _149
REMARK   65  A    between atoms: _151  and  _153
REMARK   66  A    between atoms: _153  and  _154
REMARK   67  A    between atoms: _153  and  _156
REMARK   68  A    between atoms: _156  and  _157
REMARK   69  A    between atoms: _163  and  _165
REMARK   70  A    between atoms: _165  and  _166
REMARK   71  A    between atoms: _165  and  _168
REMARK   72  A    between atoms: _168  and  _169
REMARK   73  A    between atoms: _173  and  _174
REMARK   74  A    between atoms: _179  and  _181
REMARK   75  A    between atoms: _181  and  _182
REMARK   76  A    between atoms: _181  and  _184
REMARK   77  A    between atoms: _187  and  _189
REMARK   78  A    between atoms: _189  and  _190
REMARK   79  A    between atoms: _189  and  _192
REMARK   80  A    between atoms: _192  and  _193
REMARK   81  A    between atoms: _198  and  _200
REMARK   82  A    between atoms: _200  and  _201
REMARK   83  A    between atoms: _200  and  _203
REMARK   84  A    between atoms: _203  and  _204
REMARK   85  A    between atoms: _207  and  _209
REMARK   86  A    between atoms: _209  and  _210
REMARK   87  A    between atoms: _209  and  _212
REMARK   88  A    between atoms: _212  and  _213
REMARK   89  A    between atoms: _216  and  _218
REMARK   90  A    between atoms: _218  and  _219
REMARK   91  A    between atoms: _221  and  _223
REMARK   92  A    between atoms: _223  and  _224
REMARK   93  A    between atoms: _223  and  _226
REMARK   94  A    between atoms: _226  and  _227
REMARK   95  A    between atoms: _227  and  _228
REMARK   96  A    between atoms: _228  and  _229
REMARK   97  A    between atoms: _238  and  _240
REMARK   98  A    between atoms: _240  and  _241
REMARK   99  A    between atoms: _240  and  _243
REMARK  100  A    between atoms: _243  and  _244
REMARK  101  A    between atoms: _244  and  _245
REMARK  102  A    between atoms: _245  and  _246
REMARK  103  A    between atoms: _255  and  _257
REMARK  104  A    between atoms: _257  and  _258
REMARK  105  A    between atoms: _257  and  _260
REMARK  106  A    between atoms: _260  and  _261
REMARK  107  A    between atoms: _264  and  _266
REMARK  108  A    between atoms: _266  and  _267
REMARK  109  A    between atoms: _266  and  _269
REMARK  110  A    between atoms: _269  and  _270
REMARK  111  A    between atoms: _273  and  _275
REMARK  112  A    between atoms: _275  and  _276
REMARK  113  A    between atoms: _275  and  _278
REMARK  114  A    between atoms: _278  and  _279
REMARK  115  A    between atoms: _282  and  _284
REMARK  116  A    between atoms: _284  and  _285
REMARK  117  A    between atoms: _284  and  _287
REMARK  118  A    between atoms: _287  and  _288
REMARK  119  A    between atoms: _291  and  _293
REMARK  120  A    between atoms: _293  and  _294
REMARK  121  A    between atoms: _296  and  _298
REMARK  122  A    between atoms: _298  and  _299
REMARK  123  A    between atoms: _302  and  _304
REMARK  124  A    between atoms: _304  and  _305
REMARK  125  A    between atoms: _304  and  _307
REMARK  126  A    between atoms: _307  and  _308
REMARK  127  A    between atoms: _311  and  _313
REMARK  128  A    between atoms: _313  and  _314
REMARK  129  A    between atoms: _313  and  _316
REMARK  130  A    between atoms: _316  and  _317
REMARK  131  A    between atoms: _320  and  _322
REMARK  132  A    between atoms: _322  and  _323
REMARK  133  A    between atoms: _322  and  _325
REMARK  134  A    between atoms: _325  and  _326
REMARK  135  A    between atoms: _329  and  _331
REMARK  136  A    between atoms: _331  and  _332
REMARK  137  A    between atoms: _331  and  _334
REMARK  138  A    between atoms: _337  and  _339
REMARK  139  A    between atoms: _339  and  _340
REMARK  140  A    between atoms: _339  and  _342
REMARK  141  A    between atoms: _342  and  _343
REMARK  142  A    between atoms: _343  and  _344
REMARK  143  A    between atoms: _344  and  _345
REMARK  144  A    between atoms: _345  and  _346
REMARK  145  A    between atoms: _350  and  _352
REMARK  146  A    between atoms: _352  and  _353
REMARK  147  A    between atoms: _352  and  _355
REMARK  148  A    between atoms: _355  and  _356
REMARK  149  A    between atoms: _356  and  _357
REMARK  150  A    between atoms: _359  and  _361
REMARK  151  A    between atoms: _361  and  _362
REMARK  152  A    between atoms: _361  and  _364
REMARK  153  A    between atoms: _364  and  _365
REMARK  154  A    between atoms: _368  and  _370
REMARK  155  A    between atoms: _370  and  _371
REMARK  156  A    between atoms: _373  and  _375
REMARK  157  A    between atoms: _375  and  _376
REMARK  158  A    between atoms: _378  and  _380
REMARK  159  A    between atoms: _380  and  _381
REMARK  160  A    between atoms: _380  and  _383
REMARK  161  A    between atoms: _383  and  _384
REMARK  162  A    between atoms: _387  and  _389
REMARK  163  A    between atoms: _389  and  _390
REMARK  164  A    between atoms: _392  and  _394
REMARK  165  A    between atoms: _394  and  _395
REMARK  166  A    between atoms: _397  and  _399
REMARK  167  A    between atoms: _399  and  _400
REMARK  168  A    between atoms: _399  and  _402
REMARK  169  A    between atoms: _402  and  _403
REMARK  170  A    between atoms: _409  and  _411
REMARK  171  A    between atoms: _411  and  _412
REMARK  172  A    between atoms: _411  and  _414
REMARK  173  A    between atoms: _414  and  _415
REMARK  174  A    between atoms: _418  and  _420
REMARK  175  A    between atoms: _420  and  _421
REMARK  176  A    between atoms: _420  and  _423
REMARK  177  A    between atoms: _426  and  _428
REMARK  178  A    between atoms: _428  and  _429
REMARK  179  A    between atoms: _428  and  _431
REMARK  180  A    between atoms: _431  and  _432
REMARK  181  A    between atoms: _436  and  _437
REMARK  182  A    between atoms: _442  and  _444
REMARK  183  A    between atoms: _444  and  _445
REMARK  184  A    between atoms: _444  and  _447
REMARK  185  A    between atoms: _447  and  _448
REMARK  186  A    between atoms: _452  and  _453
REMARK  187  A    between atoms: _458  and  _460
REMARK  188  A    between atoms: _460  and  _461
REMARK  189  A    between atoms: _460  and  _463
REMARK  190  A    between atoms: _466  and  _468
REMARK  191  A    between atoms: _468  and  _469
REMARK  192  A    between atoms: _468  and  _471
REMARK  193  A    between atoms: _471  and  _472
REMARK  194  A    between atoms: _477  and  _479
REMARK  195  A    between atoms: _479  and  _480
REMARK  196  A    between atoms: _479  and  _482
REMARK  197  A    between atoms: _482  and  _483
REMARK  198  A    between atoms: _486  and  _488
REMARK  199  A    between atoms: _488  and  _489
REMARK  200  A    between atoms: _488  and  _491
REMARK  201  A    between atoms: _491  and  _492
REMARK  202  A    between atoms: _495  and  _497
REMARK  203  A    between atoms: _497  and  _498
REMARK  204  A    between atoms: _500  and  _502
REMARK  205  A    between atoms: _502  and  _503
REMARK  206  A    between atoms: _502  and  _505
REMARK  207  A    between atoms: _505  and  _506
REMARK  208  A    between atoms: _506  and  _507
REMARK  209  A    between atoms: _507  and  _508
REMARK  210  A    between atoms: _517  and  _519
REMARK  211  A    between atoms: _519  and  _520
REMARK  212  A    between atoms: _519  and  _522
REMARK  213  A    between atoms: _522  and  _523
REMARK                            x       y       z     vdW  Elec       q    Type
REMARK                         _______ _______ _______ _____ _____    ______ ____
ROOT
ATOM      1  CA  ILE A   5      27.829  30.176  18.058  0.00  0.00    +0.149 C 
ENDROOT
BRANCH   1   4
ATOM      2  C   ASN A   4      28.868  32.343  18.458  0.00  0.00    +0.241 C 
ATOM      3  O   ASN A   4      28.259  32.510  19.523  0.00  0.00    -0.273 OA
ATOM      4  N   ILE A   5      28.712  31.269  17.683  0.00  0.00    -0.297 N 
ATOM      5  H   ILE A   5      29.236  31.212  16.786  0.00  0.00    +0.150 HD
BRANCH   2   6
ATOM      6  CA  ASN A   4      29.857  33.392  17.979  0.00  0.00    +0.158 C 
BRANCH   6   8
ATOM      7  C   VAL A   3      28.120  34.879  17.183  0.00  0.00    +0.241 C 
ATOM      8  N   ASN A   4      29.180  34.686  17.960  0.00  0.00    -0.297 N 
ATOM      9  H   ASN A   4      29.530  35.461  18.559  0.00  0.00    +0.150 HD
ATOM     10  O   VAL A   3      27.735  34.041  16.357  0.00  0.00    -0.273 OA
BRANCH   7  11
ATOM     11  CA  VAL A   3      27.399  36.214  17.324  0.00  0.00    +0.149 C 
BRANCH  11  14
ATOM     12  C   PRO A   2      26.460  37.744  15.650  0.00  0.00    +0.241 C 
ATOM     13  O   PRO A   2      26.733  38.743  16.320  0.00  0.00    -0.273 OA
ATOM     14  N   VAL A   3      26.705  36.503  16.061  0.00  0.00    -0.297 N 
ATOM     15  H   VAL A   3      26.394  35.708  15.467  0.00  0.00    +0.150 HD
BRANCH  12  18
ATOM     16  C   THR A   1      27.321  36.573  12.922  0.00  0.00    +0.244 C 
ATOM     17  N   PRO A   2      26.069  36.803  13.350  0.00  0.00    -0.272 N 
ATOM     18  CA  PRO A   2      25.808  37.905  14.275  0.00  0.00    +0.152 C 
ATOM     19  CB  PRO A   2      24.279  37.899  14.402  0.00  0.00    +0.031 C 
ATOM     20  CG  PRO A   2      23.885  36.509  14.082  0.00  0.00    +0.024 C 
ATOM     21  CD  PRO A   2      24.830  36.081  13.006  0.00  0.00    +0.094 C 
ATOM     22  O   THR A   1      28.270  37.276  13.257  0.00  0.00    -0.273 OA
BRANCH  16  23
ATOM     23  CA  THR A   1      27.542  35.391  11.976  0.00  0.00    +0.172 C 
BRANCH  23  24
ATOM     24  CB  THR A   1      27.932  34.114  12.770  0.00  0.00    +0.135 C 
ATOM     25  CG2 THR A   1      29.321  34.238  13.417  0.00  0.00    +0.034 C 
BRANCH  24  26
ATOM     26  OG1 THR A   1      26.945  33.839  13.767  0.00  0.00    -0.383 OA
ATOM     27  HG1 THR A   1      26.885  34.606  14.390  0.00  0.00    +0.210 HD
ENDBRANCH  24  26
ENDBRANCH  23  24
BRANCH  23  28
ATOM     28  N   THR A   1      28.576  35.755  11.018  0.00  0.00    -0.236 NA
ATOM     29  H   THR A   1      29.523  35.336  11.113  0.00  0.00    +0.142 HD
ENDBRANCH  23  28
ENDBRANCH  16  23
ENDBRANCH  12  18
ENDBRANCH  11  14
BRANCH  11  30
ATOM     30  CB  VAL A   3      26.433  36.134  18.537  0.00  0.00    +0.027 C 
ATOM     31  CG2 VAL A   3      25.703  37.458  18.764  0.00  0.00    +0.002 C 
ATOM     32  CG1 VAL A   3      25.439  34.996  18.373  0.00  0.00    +0.002 C 
ENDBRANCH  11  30
ENDBRANCH   7  11
ENDBRANCH   6   8
BRANCH   6  33
ATOM     33  CB  ASN A   4      31.040  33.383  18.938  0.00  0.00    +0.114 C 
BRANCH  33  34
ATOM     34  CG  ASN A   4      32.176  34.316  18.522  0.00  0.00    +0.222 C 
ATOM     35  ND2 ASN A   4      32.836  34.908  19.517  0.00  0.00    -0.329 N 
ATOM     36 HD21 ASN A   4      32.555  34.734  20.503  0.00  0.00    +0.145 HD
ATOM     37 HD22 ASN A   4      33.632  35.544  19.307  0.00  0.00    +0.145 HD
ATOM     38  OD1 ASN A   4      32.470  34.490  17.336  0.00  0.00    -0.275 OA
ENDBRANCH  33  34
ENDBRANCH   6  33
ENDBRANCH   2   6
ENDBRANCH   1   4
BRANCH   1  39
ATOM     39  C   ILE A   5      28.556  28.833  18.069  0.00  0.00    +0.241 C 
ATOM     40  N   ILE A   6      28.317  28.072  19.134  0.00  0.00    -0.297 N 
ATOM     41  H   ILE A   6      27.795  28.482  19.934  0.00  0.00    +0.150 HD
ATOM     42  O   ILE A   5      29.338  28.517  17.157  0.00  0.00    -0.273 OA
BRANCH  40  43
ATOM     43  CA  ILE A   6      28.758  26.687  19.223  0.00  0.00    +0.149 C 
BRANCH  43  44
ATOM     44  C   ILE A   6      27.597  25.800  18.788  0.00  0.00    +0.241 C 
ATOM     45  O   ILE A   6      26.553  25.739  19.452  0.00  0.00    -0.273 OA
ATOM     46  N   GLY A   7      27.788  25.108  17.667  0.00  0.00    -0.295 N 
ATOM     47  H   GLY A   7      28.702  25.186  17.177  0.00  0.00    +0.150 HD
BRANCH  46  48
ATOM     48  CA  GLY A   7      26.761  24.249  17.108  0.00  0.00    +0.176 C 
BRANCH  48  49
ATOM     49  C   GLY A   7      26.890  22.794  17.509  0.00  0.00    +0.243 C 
ATOM     50  O   GLY A   7      27.813  22.401  18.219  0.00  0.00    -0.273 OA
ATOM     51  N   ARG A   8      25.975  21.983  16.999  0.00  0.00    -0.298 N 
ATOM     52  H   ARG A   8      25.296  22.354  16.304  0.00  0.00    +0.150 HD
BRANCH  51  53
ATOM     53  CA  ARG A   8      25.901  20.579  17.393  0.00  0.00    +0.137 C 
BRANCH  53  54
ATOM     54  C   ARG A   8      27.168  19.790  17.079  0.00  0.00    +0.227 C 
ATOM     55  O   ARG A   8      27.473  18.840  17.785  0.00  0.00    -0.286 OA
ENDBRANCH  53  54
BRANCH  53  56
ATOM     56  CB  ARG A   8      24.697  19.896  16.748  0.00  0.00    +0.031 C 
BRANCH  56  57
ATOM     57  CG  ARG A   8      23.364  20.387  17.302  0.00  0.00    +0.045 C 
BRANCH  57  58
ATOM     58  CD  ARG A   8      22.179  19.554  16.830  0.00  0.00    +0.174 C 
BRANCH  58  59
ATOM     59  NE  ARG A   8      22.071  19.566  15.371  0.00  0.00    -0.265 N 
ATOM     60  HE  ARG A   8      21.618  20.395  14.936  0.00  0.00    +0.259 HD
ATOM     61  CZ  ARG A   8      22.501  18.609  14.551  0.00  0.00    +0.342 C 
ATOM     62  NH2 ARG A   8      23.074  17.513  15.004  0.00  0.00    -0.292 N 
ATOM     63 HH21 ARG A   8      23.201  17.377  16.027  0.00  0.00    +0.255 HD
ATOM     64 HH22 ARG A   8      23.400  16.783  14.338  0.00  0.00    +0.255 HD
ATOM     65  NH1 ARG A   8      22.359  18.762  13.247  0.00  0.00    -0.292 N 
ATOM     66 HH11 ARG A   8      21.915  19.623  12.870  0.00  0.00    +0.255 HD
ATOM     67 HH12 ARG A   8      22.691  18.021  12.597  0.00  0.00    +0.255 HD
ENDBRANCH  58  59
ENDBRANCH  57  58
ENDBRANCH  56  57
ENDBRANCH  53  56
ENDBRANCH  51  53
ENDBRANCH  48  49
ENDBRANCH  46  48
ENDBRANCH  43  44
BRANCH  43  68
ATOM     68  CB  ILE A   6      29.204  26.281  20.640  0.00  0.00    +0.027 C 
ATOM     69  CG2 ILE A   6      29.737  24.846  20.607  0.00  0.00    +0.002 C 
BRANCH  68  70
ATOM     70  CG1 ILE A   6      30.273  27.235  21.189  0.00  0.00    +0.002 C 
ATOM     71  CD1 ILE A   6      31.475  27.432  20.296  0.00  0.00    +0.000 C 
ENDBRANCH  68  70
ENDBRANCH  43  68
ENDBRANCH  40  43
ENDBRANCH   1  39
BRANCH   1  72
ATOM     72  CB  ILE A   5      26.528  30.091  17.173  0.00  0.00    +0.027 C 
ATOM     73  CG2 ILE A   5      25.758  31.398  17.227  0.00  0.00    +0.002 C 
BRANCH  72  74
ATOM     74  CG1 ILE A   5      26.833  29.660  15.729  0.00  0.00    +0.002 C 
ATOM     75  CD1 ILE A   5      25.620  29.704  14.791  0.00  0.00    +0.000 C 
ENDBRANCH  72  74
ENDBRANCH   1  72
TORSDOF 28
REMARK  Name = ../refined-set-2016/3gi5/3gi5_pocket.pdb
REMARK  213 active torsions:
REMARK  status: ('A' for Active; 'I' for Inactive)
REMARK    1  A    between atoms: _1  and  _3
REMARK    2  A    between atoms: _3  and  _4
REMARK    3  A    between atoms: _3  and  _6
REMARK    4  A    between atoms: _6  and  _7
REMARK    5  A    between atoms: _7  and  _8
REMARK    6  A    between atoms: _8  and  _9
REMARK    7  A    between atoms: _18  and  _20
REMARK    8  A    between atoms: _20  and  _21
REMARK    9  A    between atoms: _20  and  _23
REMARK   10  A    between atoms: _23  and  _24
REMARK   11  A    between atoms: _27  and  _29
REMARK   12  A    between atoms: _29  and  _30
REMARK   13  A    between atoms: _29  and  _32
REMARK   14  A    between atoms: _32  and  _33
REMARK   15  A    between atoms: _36  and  _38
REMARK   16  A    between atoms: _38  and  _39
REMARK   17  A    between atoms: _38  and  _41
REMARK   18  A    between atoms: _41  and  _42
REMARK   19  A    between atoms: _45  and  _47
REMARK   20  A    between atoms: _47  and  _48
REMARK   21  A    between atoms: _47  and  _50
REMARK   22  A    between atoms: _50  and  _51
REMARK   23  A    between atoms: _54  and  _56
REMARK   24  A    between atoms: _56  and  _57
REMARK   25  A    between atoms: _59  and  _61
REMARK   26  A    between atoms: _61  and  _62
REMARK   27  A    between atoms: _65  and  _67
REMARK   28  A    between atoms: _67  and  _68
REMARK   29  A    between atoms: _67  and  _70
REMARK   30  A    between atoms: _70  and  _71
REMARK   31  A    between atoms: _74  and  _76
REMARK   32  A    between atoms: _76  and  _77
REMARK   33  A    between atoms: _76  and  _79
REMARK   34  A    between atoms: _79  and  _80
REMARK   35  A    between atoms: _83  and  _85
REMARK   36  A    between atoms: _85  and  _86
REMARK   37  A    between atoms: _85  and  _88
REMARK   38  A    between atoms: _88  and  _89
REMARK   39  A    between atoms: _92  and  _94
REMARK   40  A    between atoms: _94  and  _95
REMARK   41  A    between atoms: _94  and  _97
REMARK   42  A    between atoms: _100  and  _102
REMARK   43  A    between atoms: _102  and  _103
REMARK   44  A    between atoms: _102  and  _105
REMARK   45  A    between atoms: _105  and  _106
REMARK   46  A    between atoms: _106  and  _107
REMARK   47  A    between atoms: _107  and  _108
REMARK   48  A    between atoms: _108  and  _109
REMARK   49  A    between atoms: _113  and  _115
REMARK   50  A    between atoms: _115  and  _116
REMARK   51  A    between atoms: _115  and  _118
REMARK   52  A    between atoms: _118  and  _119
REMARK   53  A    between atoms: _122  and  _124
REMARK   54  A    between atoms: _124  and  _125
REMARK   55  A    between atoms: _127  and  _129
REMARK   56  A    between atoms: _129  and  _130
REMARK   57  A    between atoms: _132  and  _134
REMARK   58  A    between atoms: _134  and  _135
REMARK   59  A    between atoms: _134  and  _137
REMARK   60  A    between atoms: _137  and  _138
REMARK   61  A    between atoms: _141  and  _143
REMARK   62  A    between atoms: _143  and  _144
REMARK   63  A    between atoms: _146  and  _148
REMARK   64  A    between atoms: _148  and  _149
REMARK   65  A    between atoms: _151  and  _153
REMARK   66  A    between atoms: _153  and  _154
REMARK   67  A    between atoms: _153  and  _156
REMARK   68  A    between atoms: _156  and  _157
REMARK   69  A    between atoms: _163  and  _165
REMARK   70  A    between atoms: _165  and  _166
REMARK   71  A    between atoms: _165  and  _168
REMARK   72  A    between atoms: _168  and  _169
REMARK   73  A    between atoms: _173  and  _174
REMARK   74  A    between atoms: _179  and  _181
REMARK   75  A    between atoms: _181  and  _182
REMARK   76  A    between atoms: _181  and  _184
REMARK   77  A    between atoms: _187  and  _189
REMARK   78  A    between atoms: _189  and  _190
REMARK   79  A    between atoms: _189  and  _192
REMARK   80  A    between atoms: _192  and  _193
REMARK   81  A    between atoms: _198  and  _200
REMARK   82  A    between atoms: _200  and  _201
REMARK   83  A    between atoms: _200  and  _203
REMARK   84  A    between atoms: _203  and  _204
REMARK   85  A    between atoms: _207  and  _209
REMARK   86  A    between atoms: _209  and  _210
REMARK   87  A    between atoms: _209  and  _212
REMARK   88  A    between atoms: _212  and  _213
REMARK   89  A    between atoms: _216  and  _218
REMARK   90  A    between atoms: _218  and  _219
REMARK   91  A    between atoms: _221  and  _223
REMARK   92  A    between atoms: _223  and  _224
REMARK   93  A    between atoms: _223  and  _226
REMARK   94  A    between atoms: _226  and  _227
REMARK   95  A    between atoms: _227  and  _228
REMARK   96  A    between atoms: _228  and  _229
REMARK   97  A    between atoms: _238  and  _240
REMARK   98  A    between atoms: _240  and  _241
REMARK   99  A    between atoms: _240  and  _243
REMARK  100  A    between atoms: _243  and  _244
REMARK  101  A    between atoms: _244  and  _245
REMARK  102  A    between atoms: _245  and  _246
REMARK  103  A    between atoms: _255  and  _257
REMARK  104  A    between atoms: _257  and  _258
REMARK  105  A    between atoms: _257  and  _260
REMARK  106  A    between atoms: _260  and  _261
REMARK  107  A    between atoms: _264  and  _266
REMARK  108  A    between atoms: _266  and  _267
REMARK  109  A    between atoms: _266  and  _269
REMARK  110  A    between atoms: _269  and  _270
REMARK  111  A    between atoms: _273  and  _275
REMARK  112  A    between atoms: _275  and  _276
REMARK  113  A    between atoms: _275  and  _278
REMARK  114  A    between atoms: _278  and  _279
REMARK  115  A    between atoms: _282  and  _284
REMARK  116  A    between atoms: _284  and  _285
REMARK  117  A    between atoms: _284  and  _287
REMARK  118  A    between atoms: _287  and  _288
REMARK  119  A    between atoms: _291  and  _293
REMARK  120  A    between atoms: _293  and  _294
REMARK  121  A    between atoms: _296  and  _298
REMARK  122  A    between atoms: _298  and  _299
REMARK  123  A    between atoms: _302  and  _304
REMARK  124  A    between atoms: _304  and  _305
REMARK  125  A    between atoms: _304  and  _307
REMARK  126  A    between atoms: _307  and  _308
REMARK  127  A    between atoms: _311  and  _313
REMARK  128  A    between atoms: _313  and  _314
REMARK  129  A    between atoms: _313  and  _316
REMARK  130  A    between atoms: _316  and  _317
REMARK  131  A    between atoms: _320  and  _322
REMARK  132  A    between atoms: _322  and  _323
REMARK  133  A    between atoms: _322  and  _325
REMARK  134  A    between atoms: _325  and  _326
REMARK  135  A    between atoms: _329  and  _331
REMARK  136  A    between atoms: _331  and  _332
REMARK  137  A    between atoms: _331  and  _334
REMARK  138  A    between atoms: _337  and  _339
REMARK  139  A    between atoms: _339  and  _340
REMARK  140  A    between atoms: _339  and  _342
REMARK  141  A    between atoms: _342  and  _343
REMARK  142  A    between atoms: _343  and  _344
REMARK  143  A    between atoms: _344  and  _345
REMARK  144  A    between atoms: _345  and  _346
REMARK  145  A    between atoms: _350  and  _352
REMARK  146  A    between atoms: _352  and  _353
REMARK  147  A    between atoms: _352  and  _355
REMARK  148  A    between atoms: _355  and  _356
REMARK  149  A    between atoms: _356  and  _357
REMARK  150  A    between atoms: _359  and  _361
REMARK  151  A    between atoms: _361  and  _362
REMARK  152  A    between atoms: _361  and  _364
REMARK  153  A    between atoms: _364  and  _365
REMARK  154  A    between atoms: _368  and  _370
REMARK  155  A    between atoms: _370  and  _371
REMARK  156  A    between atoms: _373  and  _375
REMARK  157  A    between atoms: _375  and  _376
REMARK  158  A    between atoms: _378  and  _380
REMARK  159  A    between atoms: _380  and  _381
REMARK  160  A    between atoms: _380  and  _383
REMARK  161  A    between atoms: _383  and  _384
REMARK  162  A    between atoms: _387  and  _389
REMARK  163  A    between atoms: _389  and  _390
REMARK  164  A    between atoms: _392  and  _394
REMARK  165  A    between atoms: _394  and  _395
REMARK  166  A    between atoms: _397  and  _399
REMARK  167  A    between atoms: _399  and  _400
REMARK  168  A    between atoms: _399  and  _402
REMARK  169  A    between atoms: _402  and  _403
REMARK  170  A    between atoms: _409  and  _411
REMARK  171  A    between atoms: _411  and  _412
REMARK  172  A    between atoms: _411  and  _414
REMARK  173  A    between atoms: _414  and  _415
REMARK  174  A    between atoms: _418  and  _420
REMARK  175  A    between atoms: _420  and  _421
REMARK  176  A    between atoms: _420  and  _423
REMARK  177  A    between atoms: _426  and  _428
REMARK  178  A    between atoms: _428  and  _429
REMARK  179  A    between atoms: _428  and  _431
REMARK  180  A    between atoms: _431  and  _432
REMARK  181  A    between atoms: _436  and  _437
REMARK  182  A    between atoms: _442  and  _444
REMARK  183  A    between atoms: _444  and  _445
REMARK  184  A    between atoms: _444  and  _447
REMARK  185  A    between atoms: _447  and  _448
REMARK  186  A    between atoms: _452  and  _453
REMARK  187  A    between atoms: _458  and  _460
REMARK  188  A    between atoms: _460  and  _461
REMARK  189  A    between atoms: _460  and  _463
REMARK  190  A    between atoms: _466  and  _468
REMARK  191  A    between atoms: _468  and  _469
REMARK  192  A    between atoms: _468  and  _471
REMARK  193  A    between atoms: _471  and  _472
REMARK  194  A    between atoms: _477  and  _479
REMARK  195  A    between atoms: _479  and  _480
REMARK  196  A    between atoms: _479  and  _482
REMARK  197  A    between atoms: _482  and  _483
REMARK  198  A    between atoms: _486  and  _488
REMARK  199  A    between atoms: _488  and  _489
REMARK  200  A    between atoms: _488  and  _491
REMARK  201  A    between atoms: _491  and  _492
REMARK  202  A    between atoms: _495  and  _497
REMARK  203  A    between atoms: _497  and  _498
REMARK  204  A    between atoms: _500  and  _502
REMARK  205  A    between atoms: _502  and  _503
REMARK  206  A    between atoms: _502  and  _505
REMARK  207  A    between atoms: _505  and  _506
REMARK  208  A    between atoms: _506  and  _507
REMARK  209  A    between atoms: _507  and  _508
REMARK  210  A    between atoms: _517  and  _519
REMARK  211  A    between atoms: _519  and  _520
REMARK  212  A    between atoms: _519  and  _522
REMARK  213  A    between atoms: _522  and  _523
REMARK                            x       y       z     vdW  Elec       q    Type
REMARK                         _______ _______ _______ _____ _____    ______ ____
ROOT
ATOM      1  NE  ARG A   1      19.102  20.407  10.811  0.00  0.00    -0.265 N 
ATOM      2  HE  ARG A   1      19.887  20.965  11.203  0.00  0.00    +0.259 HD
ATOM      3  CZ  ARG A   1      18.992  20.344   9.484  0.00  0.00    +0.342 C 
ATOM      4  NH2 ARG A   1      18.000  19.674   8.902  0.00  0.00    -0.292 N 
ATOM      5 HH21 ARG A   1      17.290  19.186   9.485  0.00  0.00    +0.255 HD
ATOM      6 HH22 ARG A   1      17.935  19.639   7.865  0.00  0.00    +0.255 HD
ATOM      7  NH1 ARG A   1      19.874  20.975   8.718  0.00  0.00    -0.292 N 
ATOM      8 HH11 ARG A   1      20.648  21.516   9.154  0.00  0.00    +0.255 HD
ATOM      9 HH12 ARG A   1      19.791  20.928   7.682  0.00  0.00    +0.255 HD
ENDROOT
BRANCH   1  10
ATOM     10  CD  ARG A   1      18.198  19.747  11.760  0.00  0.00    +0.174 C 
BRANCH  10  11
ATOM     11  CG  ARG A   1      18.918  19.341  13.015  0.00  0.00    +0.045 C 
BRANCH  11  12
ATOM     12  CB  ARG A   1      17.943  18.871  14.076  0.00  0.00    +0.029 C 
BRANCH  12  13
ATOM     13  CA  ARG A   1      18.616  18.186  15.252  0.00  0.00    +0.133 C 
BRANCH  13  14
ATOM     14  N   ARG A   1      19.281  16.955  14.843  0.00  0.00    -0.239 NA
ATOM     15  H   ARG A   1      19.200  16.622  13.861  0.00  0.00    +0.142 HD
ENDBRANCH  13  14
BRANCH  13  16
ATOM     16  C   ARG A   1      17.580  17.851  16.324  0.00  0.00    +0.224 C 
ATOM     17  O   ARG A   1      16.903  16.839  16.221  0.00  0.00    -0.287 OA
ENDBRANCH  13  16
ENDBRANCH  12  13
ENDBRANCH  11  12
ENDBRANCH  10  11
ENDBRANCH   1  10
TORSDOF 6
REMARK  Name = ../refined-set-2016/3gi5/3gi5_pocket.pdb
REMARK  213 active torsions:
REMARK  status: ('A' for Active; 'I' for Inactive)
REMARK    1  A    between atoms: _1  and  _3
REMARK    2  A    between atoms: _3  and  _4
REMARK    3  A    between atoms: _3  and  _6
REMARK    4  A    between atoms: _6  and  _7
REMARK    5  A    between atoms: _7  and  _8
REMARK    6  A    between atoms: _8  and  _9
REMARK    7  A    between atoms: _18  and  _20
REMARK    8  A    between atoms: _20  and  _21
REMARK    9  A    between atoms: _20  and  _23
REMARK   10  A    between atoms: _23  and  _24
REMARK   11  A    between atoms: _27  and  _29
REMARK   12  A    between atoms: _29  and  _30
REMARK   13  A    between atoms: _29  and  _32
REMARK   14  A    between atoms: _32  and  _33
REMARK   15  A    between atoms: _36  and  _38
REMARK   16  A    between atoms: _38  and  _39
REMARK   17  A    between atoms: _38  and  _41
REMARK   18  A    between atoms: _41  and  _42
REMARK   19  A    between atoms: _45  and  _47
REMARK   20  A    between atoms: _47  and  _48
REMARK   21  A    between atoms: _47  and  _50
REMARK   22  A    between atoms: _50  and  _51
REMARK   23  A    between atoms: _54  and  _56
REMARK   24  A    between atoms: _56  and  _57
REMARK   25  A    between atoms: _59  and  _61
REMARK   26  A    between atoms: _61  and  _62
REMARK   27  A    between atoms: _65  and  _67
REMARK   28  A    between atoms: _67  and  _68
REMARK   29  A    between atoms: _67  and  _70
REMARK   30  A    between atoms: _70  and  _71
REMARK   31  A    between atoms: _74  and  _76
REMARK   32  A    between atoms: _76  and  _77
REMARK   33  A    between atoms: _76  and  _79
REMARK   34  A    between atoms: _79  and  _80
REMARK   35  A    between atoms: _83  and  _85
REMARK   36  A    between atoms: _85  and  _86
REMARK   37  A    between atoms: _85  and  _88
REMARK   38  A    between atoms: _88  and  _89
REMARK   39  A    between atoms: _92  and  _94
REMARK   40  A    between atoms: _94  and  _95
REMARK   41  A    between atoms: _94  and  _97
REMARK   42  A    between atoms: _100  and  _102
REMARK   43  A    between atoms: _102  and  _103
REMARK   44  A    between atoms: _102  and  _105
REMARK   45  A    between atoms: _105  and  _106
REMARK   46  A    between atoms: _106  and  _107
REMARK   47  A    between atoms: _107  and  _108
REMARK   48  A    between atoms: _108  and  _109
REMARK   49  A    between atoms: _113  and  _115
REMARK   50  A    between atoms: _115  and  _116
REMARK   51  A    between atoms: _115  and  _118
REMARK   52  A    between atoms: _118  and  _119
REMARK   53  A    between atoms: _122  and  _124
REMARK   54  A    between atoms: _124  and  _125
REMARK   55  A    between atoms: _127  and  _129
REMARK   56  A    between atoms: _129  and  _130
REMARK   57  A    between atoms: _132  and  _134
REMARK   58  A    between atoms: _134  and  _135
REMARK   59  A    between atoms: _134  and  _137
REMARK   60  A    between atoms: _137  and  _138
REMARK   61  A    between atoms: _141  and  _143
REMARK   62  A    between atoms: _143  and  _144
REMARK   63  A    between atoms: _146  and  _148
REMARK   64  A    between atoms: _148  and  _149
REMARK   65  A    between atoms: _151  and  _153
REMARK   66  A    between atoms: _153  and  _154
REMARK   67  A    between atoms: _153  and  _156
REMARK   68  A    between atoms: _156  and  _157
REMARK   69  A    between atoms: _163  and  _165
REMARK   70  A    between atoms: _165  and  _166
REMARK   71  A    between atoms: _165  and  _168
REMARK   72  A    between atoms: _168  and  _169
REMARK   73  A    between atoms: _173  and  _174
REMARK   74  A    between atoms: _179  and  _181
REMARK   75  A    between atoms: _181  and  _182
REMARK   76  A    between atoms: _181  and  _184
REMARK   77  A    between atoms: _187  and  _189
REMARK   78  A    between atoms: _189  and  _190
REMARK   79  A    between atoms: _189  and  _192
REMARK   80  A    between atoms: _192  and  _193
REMARK   81  A    between atoms: _198  and  _200
REMARK   82  A    between atoms: _200  and  _201
REMARK   83  A    between atoms: _200  and  _203
REMARK   84  A    between atoms: _203  and  _204
REMARK   85  A    between atoms: _207  and  _209
REMARK   86  A    between atoms: _209  and  _210
REMARK   87  A    between atoms: _209  and  _212
REMARK   88  A    between atoms: _212  and  _213
REMARK   89  A    between atoms: _216  and  _218
REMARK   90  A    between atoms: _218  and  _219
REMARK   91  A    between atoms: _221  and  _223
REMARK   92  A    between atoms: _223  and  _224
REMARK   93  A    between atoms: _223  and  _226
REMARK   94  A    between atoms: _226  and  _227
REMARK   95  A    between atoms: _227  and  _228
REMARK   96  A    between atoms: _228  and  _229
REMARK   97  A    between atoms: _238  and  _240
REMARK   98  A    between atoms: _240  and  _241
REMARK   99  A    between atoms: _240  and  _243
REMARK  100  A    between atoms: _243  and  _244
REMARK  101  A    between atoms: _244  and  _245
REMARK  102  A    between atoms: _245  and  _246
REMARK  103  A    between atoms: _255  and  _257
REMARK  104  A    between atoms: _257  and  _258
REMARK  105  A    between atoms: _257  and  _260
REMARK  106  A    between atoms: _260  and  _261
REMARK  107  A    between atoms: _264  and  _266
REMARK  108  A    between atoms: _266  and  _267
REMARK  109  A    between atoms: _266  and  _269
REMARK  110  A    between atoms: _269  and  _270
REMARK  111  A    between atoms: _273  and  _275
REMARK  112  A    between atoms: _275  and  _276
REMARK  113  A    between atoms: _275  and  _278
REMARK  114  A    between atoms: _278  and  _279
REMARK  115  A    between atoms: _282  and  _284
REMARK  116  A    between atoms: _284  and  _285
REMARK  117  A    between atoms: _284  and  _287
REMARK  118  A    between atoms: _287  and  _288
REMARK  119  A    between atoms: _291  and  _293
REMARK  120  A    between atoms: _293  and  _294
REMARK  121  A    between atoms: _296  and  _298
REMARK  122  A    between atoms: _298  and  _299
REMARK  123  A    between atoms: _302  and  _304
REMARK  124  A    between atoms: _304  and  _305
REMARK  125  A    between atoms: _304  and  _307
REMARK  126  A    between atoms: _307  and  _308
REMARK  127  A    between atoms: _311  and  _313
REMARK  128  A    between atoms: _313  and  _314
REMARK  129  A    between atoms: _313  and  _316
REMARK  130  A    between atoms: _316  and  _317
REMARK  131  A    between atoms: _320  and  _322
REMARK  132  A    between atoms: _322  and  _323
REMARK  133  A    between atoms: _322  and  _325
REMARK  134  A    between atoms: _325  and  _326
REMARK  135  A    between atoms: _329  and  _331
REMARK  136  A    between atoms: _331  and  _332
REMARK  137  A    between atoms: _331  and  _334
REMARK  138  A    between atoms: _337  and  _339
REMARK  139  A    between atoms: _339  and  _340
REMARK  140  A    between atoms: _339  and  _342
REMARK  141  A    between atoms: _342  and  _343
REMARK  142  A    between atoms: _343  and  _344
REMARK  143  A    between atoms: _344  and  _345
REMARK  144  A    between atoms: _345  and  _346
REMARK  145  A    between atoms: _350  and  _352
REMARK  146  A    between atoms: _352  and  _353
REMARK  147  A    between atoms: _352  and  _355
REMARK  148  A    between atoms: _355  and  _356
REMARK  149  A    between atoms: _356  and  _357
REMARK  150  A    between atoms: _359  and  _361
REMARK  151  A    between atoms: _361  and  _362
REMARK  152  A    between atoms: _361  and  _364
REMARK  153  A    between atoms: _364  and  _365
REMARK  154  A    between atoms: _368  and  _370
REMARK  155  A    between atoms: _370  and  _371
REMARK  156  A    between atoms: _373  and  _375
REMARK  157  A    between atoms: _375  and  _376
REMARK  158  A    between atoms: _378  and  _380
REMARK  159  A    between atoms: _380  and  _381
REMARK  160  A    between atoms: _380  and  _383
REMARK  161  A    between atoms: _383  and  _384
REMARK  162  A    between atoms: _387  and  _389
REMARK  163  A    between atoms: _389  and  _390
REMARK  164  A    between atoms: _392  and  _394
REMARK  165  A    between atoms: _394  and  _395
REMARK  166  A    between atoms: _397  and  _399
REMARK  167  A    between atoms: _399  and  _400
REMARK  168  A    between atoms: _399  and  _402
REMARK  169  A    between atoms: _402  and  _403
REMARK  170  A    between atoms: _409  and  _411
REMARK  171  A    between atoms: _411  and  _412
REMARK  172  A    between atoms: _411  and  _414
REMARK  173  A    between atoms: _414  and  _415
REMARK  174  A    between atoms: _418  and  _420
REMARK  175  A    between atoms: _420  and  _421
REMARK  176  A    between atoms: _420  and  _423
REMARK  177  A    between atoms: _426  and  _428
REMARK  178  A    between atoms: _428  and  _429
REMARK  179  A    between atoms: _428  and  _431
REMARK  180  A    between atoms: _431  and  _432
REMARK  181  A    between atoms: _436  and  _437
REMARK  182  A    between atoms: _442  and  _444
REMARK  183  A    between atoms: _444  and  _445
REMARK  184  A    between atoms: _444  and  _447
REMARK  185  A    between atoms: _447  and  _448
REMARK  186  A    between atoms: _452  and  _453
REMARK  187  A    between atoms: _458  and  _460
REMARK  188  A    between atoms: _460  and  _461
REMARK  189  A    between atoms: _460  and  _463
REMARK  190  A    between atoms: _466  and  _468
REMARK  191  A    between atoms: _468  and  _469
REMARK  192  A    between atoms: _468  and  _471
REMARK  193  A    between atoms: _471  and  _472
REMARK  194  A    between atoms: _477  and  _479
REMARK  195  A    between atoms: _479  and  _480
REMARK  196  A    between atoms: _479  and  _482
REMARK  197  A    between atoms: _482  and  _483
REMARK  198  A    between atoms: _486  and  _488
REMARK  199  A    between atoms: _488  and  _489
REMARK  200  A    between atoms: _488  and  _491
REMARK  201  A    between atoms: _491  and  _492
REMARK  202  A    between atoms: _495  and  _497
REMARK  203  A    between atoms: _497  and  _498
REMARK  204  A    between atoms: _500  and  _502
REMARK  205  A    between atoms: _502  and  _503
REMARK  206  A    between atoms: _502  and  _505
REMARK  207  A    between atoms: _505  and  _506
REMARK  208  A    between atoms: _506  and  _507
REMARK  209  A    between atoms: _507  and  _508
REMARK  210  A    between atoms: _517  and  _519
REMARK  211  A    between atoms: _519  and  _520
REMARK  212  A    between atoms: _519  and  _522
REMARK  213  A    between atoms: _522  and  _523
REMARK                            x       y       z     vdW  Elec       q    Type
REMARK                         _______ _______ _______ _____ _____    ______ ____
ROOT
ATOM      1  C   GLY A   5      19.404  30.948  20.239  0.00  0.00    +0.243 C 
ATOM      2  N   ALA A   6      18.126  30.661  20.486  0.00  0.00    -0.297 N 
ATOM      3  H   ALA A   6      17.906  29.772  20.979  0.00  0.00    +0.150 HD
ATOM      4  O   GLY A   5      19.769  31.980  19.688  0.00  0.00    -0.273 OA
ENDROOT
BRANCH   2   5
ATOM      5  CA  ALA A   6      17.017  31.534  20.099  0.00  0.00    +0.149 C 
ATOM      6  CB  ALA A   6      15.941  30.716  19.388  0.00  0.00    +0.031 C 
BRANCH   5   7
ATOM      7  C   ALA A   6      16.432  32.202  21.340  0.00  0.00    +0.241 C 
ATOM      8  O   ALA A   6      15.890  31.523  22.200  0.00  0.00    -0.273 OA
ATOM      9  N   ASP A   7      16.528  33.532  21.435  0.00  0.00    -0.297 N 
ATOM     10  H   ASP A   7      17.052  34.064  20.711  0.00  0.00    +0.150 HD
BRANCH   9  11
ATOM     11  CA  ASP A   7      15.895  34.252  22.561  0.00  0.00    +0.160 C 
BRANCH  11  12
ATOM     12  C   ASP A   7      14.381  34.034  22.573  0.00  0.00    +0.241 C 
ATOM     13  O   ASP A   7      13.769  33.833  23.629  0.00  0.00    -0.273 OA
ATOM     14  N   ASP A   8      13.812  34.082  21.372  0.00  0.00    -0.297 N 
ATOM     15  H   ASP A   8      14.438  34.092  20.542  0.00  0.00    +0.150 HD
BRANCH  14  16
ATOM     16  CA  ASP A   8      12.389  34.121  21.138  0.00  0.00    +0.160 C 
BRANCH  16  17
ATOM     17  C   ASP A   8      11.970  32.922  20.310  0.00  0.00    +0.241 C 
ATOM     18  N   THR A   9      10.679  32.629  20.359  0.00  0.00    -0.295 N 
ATOM     19  H   THR A   9      10.059  33.213  20.955  0.00  0.00    +0.150 HD
ATOM     20  O   ASP A   8      12.794  32.294  19.640  0.00  0.00    -0.273 OA
BRANCH  18  21
ATOM     21  CA  THR A   9      10.091  31.525  19.614  0.00  0.00    +0.176 C 
BRANCH  21  22
ATOM     22  C   THR A   9       9.617  32.066  18.272  0.00  0.00    +0.243 C 
ATOM     23  O   THR A   9       8.884  33.066  18.212  0.00  0.00    -0.273 OA
ATOM     24  N   VAL A  10      10.057  31.409  17.198  0.00  0.00    -0.298 N 
ATOM     25  H   VAL A  10      10.630  30.553  17.340  0.00  0.00    +0.150 HD
BRANCH  24  26
ATOM     26  CA  VAL A  10       9.771  31.838  15.829  0.00  0.00    +0.137 C 
BRANCH  26  27
ATOM     27  CB  VAL A  10      11.037  32.282  15.060  0.00  0.00    +0.026 C 
ATOM     28  CG2 VAL A  10      11.905  33.203  15.915  0.00  0.00    +0.002 C 
ATOM     29  CG1 VAL A  10      10.642  32.991  13.756  0.00  0.00    +0.002 C 
ENDBRANCH  26  27
BRANCH  26  30
ATOM     30  C   VAL A  10       9.123  30.683  15.079  0.00  0.00    +0.227 C 
ATOM     31  O   VAL A  10       9.723  29.626  14.917  0.00  0.00    -0.286 OA
ENDBRANCH  26  30
ENDBRANCH  24  26
ENDBRANCH  21  22
BRANCH  21  32
ATOM     32  CB  THR A   9       8.948  30.877  20.436  0.00  0.00    +0.137 C 
ATOM     33  CG2 THR A   9       8.166  29.828  19.637  0.00  0.00    +0.034 C 
BRANCH  32  34
ATOM     34  OG1 THR A   9       9.519  30.247  21.589  0.00  0.00    -0.382 OA
ATOM     35  HG1 THR A   9       9.987  30.926  22.137  0.00  0.00    +0.210 HD
ENDBRANCH  32  34
ENDBRANCH  21  32
ENDBRANCH  18  21
ENDBRANCH  16  17
BRANCH  16  36
ATOM     36  CB  ASP A   8      12.029  35.374  20.336  0.00  0.00    +0.143 C 
BRANCH  36  37
ATOM     37  CG  ASP A   8      12.535  36.652  20.973  0.00  0.00    +0.367 C 
ATOM     38  OD2 ASP A   8      12.419  36.794  22.208  0.00  0.00    -0.246 OA
ATOM     39  OD1 ASP A   8      13.018  37.530  20.222  0.00  0.00    -0.246 OA
ENDBRANCH  36  37
ENDBRANCH  16  36
ENDBRANCH  14  16
ENDBRANCH  11  12
BRANCH  11  40
ATOM     40  CB  ASP A   7      16.128  35.760  22.474  0.00  0.00    +0.143 C 
BRANCH  40  41
ATOM     41  CG  ASP A   7      17.580  36.146  22.506  0.00  0.00    +0.367 C 
ATOM     42  OD2 ASP A   7      18.421  35.373  23.010  0.00  0.00    -0.246 OA
ATOM     43  OD1 ASP A   7      17.871  37.264  22.035  0.00  0.00    -0.246 OA
ENDBRANCH  40  41
ENDBRANCH  11  40
ENDBRANCH   9  11
ENDBRANCH   5   7
ENDBRANCH   2   5
BRANCH   1  44
ATOM     44  CA  GLY A   5      20.432  29.909  20.662  0.00  0.00    +0.176 C 
BRANCH  44  47
ATOM     45  C   THR A   4      19.621  28.645  22.590  0.00  0.00    +0.243 C 
ATOM     46  O   THR A   4      19.893  29.566  23.369  0.00  0.00    -0.273 OA
ATOM     47  N   GLY A   5      19.873  28.709  21.280  0.00  0.00    -0.295 N 
ATOM     48  H   GLY A   5      19.666  27.882  20.684  0.00  0.00    +0.150 HD
BRANCH  45  49
ATOM     49  CA  THR A   4      18.971  27.362  23.112  0.00  0.00    +0.176 C 
BRANCH  49  51
ATOM     50  C   ASP A   3      17.274  26.963  21.392  0.00  0.00    +0.241 C 
ATOM     51  N   THR A   4      18.369  26.570  22.036  0.00  0.00    -0.295 N 
ATOM     52  H   THR A   4      18.814  25.669  21.767  0.00  0.00    +0.150 HD
ATOM     53  O   ASP A   3      16.714  28.052  21.607  0.00  0.00    -0.273 OA
BRANCH  50  54
ATOM     54  CA  ASP A   3      16.776  26.009  20.294  0.00  0.00    +0.160 C 
BRANCH  54  56
ATOM     55  C   LEU A   2      15.705  23.861  20.691  0.00  0.00    +0.241 C 
ATOM     56  N   ASP A   3      15.645  25.188  20.708  0.00  0.00    -0.297 N 
ATOM     57  H   ASP A   3      14.770  25.652  21.024  0.00  0.00    +0.150 HD
ATOM     58  O   LEU A   2      16.756  23.240  20.568  0.00  0.00    -0.273 OA
BRANCH  55  59
ATOM     59  CA  LEU A   2      14.389  23.115  20.823  0.00  0.00    +0.149 C 
BRANCH  59  61
ATOM     60  C   LEU A   1      13.627  23.372  18.538  0.00  0.00    +0.238 C 
ATOM     61  N   LEU A   2      14.119  22.583  19.490  0.00  0.00    -0.297 N 
ATOM     62  H   LEU A   2      14.312  21.582  19.284  0.00  0.00    +0.150 HD
ATOM     63  O   LEU A   1      13.174  24.491  18.761  0.00  0.00    -0.274 OA
BRANCH  60  64
ATOM     64  CA  LEU A   1      13.685  22.855  17.123  0.00  0.00    +0.145 C 
BRANCH  64  65
ATOM     65  N   LEU A   1      12.375  22.973  16.486  0.00  0.00    -0.238 NA
ATOM     66  H   LEU A   1      12.200  23.784  15.858  0.00  0.00    +0.142 HD
ENDBRANCH  64  65
BRANCH  64  67
ATOM     67  CB  LEU A   1      14.730  23.696  16.401  0.00  0.00    +0.026 C 
BRANCH  67  68
ATOM     68  CG  LEU A   1      15.242  23.249  15.049  0.00  0.00    +0.002 C 
ATOM     69  CD2 LEU A   1      16.004  21.954  15.204  0.00  0.00    +0.000 C 
ATOM     70  CD1 LEU A   1      16.123  24.335  14.421  0.00  0.00    +0.000 C 
ENDBRANCH  67  68
ENDBRANCH  64  67
ENDBRANCH  60  64
ENDBRANCH  59  61
BRANCH  59  71
ATOM     71  CB  LEU A   2      14.497  22.003  21.856  0.00  0.00    +0.029 C 
BRANCH  71  72
ATOM     72  CG  LEU A   2      13.266  21.107  21.997  0.00  0.00    +0.002 C 
ATOM     73  CD2 LEU A   2      13.523  20.023  23.025  0.00  0.00    +0.000 C 
ATOM     74  CD1 LEU A   2      12.034  21.929  22.351  0.00  0.00    +0.000 C 
ENDBRANCH  71  72
ENDBRANCH  59  71
ENDBRANCH  55  59
ENDBRANCH  54  56
BRANCH  54  75
ATOM     75  CB  ASP A   3      16.394  26.807  19.042  0.00  0.00    +0.143 C 
BRANCH  75  76
ATOM     76  CG  ASP A   3      17.589  27.463  18.379  0.00  0.00    +0.367 C 
ATOM     77  OD2 ASP A   3      18.723  27.382  18.928  0.00  0.00    -0.246 OA
ATOM     78  OD1 ASP A   3      17.399  28.035  17.297  0.00  0.00    -0.246 OA
ENDBRANCH  75  76
ENDBRANCH  54  75
ENDBRANCH  50  54
ENDBRANCH  49  51
BRANCH  49  79
ATOM     79  CB  THR A   4      20.033  26.550  23.892  0.00  0.00    +0.137 C 
ATOM     80  CG2 THR A   4      19.415  25.314  24.547  0.00  0.00    +0.034 C 
BRANCH  79  81
ATOM     81  OG1 THR A   4      21.088  26.140  23.004  0.00  0.00    -0.382 OA
ATOM     82  HG1 THR A   4      21.515  26.941  22.609  0.00  0.00    +0.210 HD
ENDBRANCH  79  81
ENDBRANCH  49  79
ENDBRANCH  45  49
ENDBRANCH  44  47
ENDBRANCH   1  44
TORSDOF 35
REMARK  Name = ../refined-set-2016/3gi5/3gi5_pocket.pdb
REMARK  213 active torsions:
REMARK  status: ('A' for Active; 'I' for Inactive)
REMARK    1  A    between atoms: _1  and  _3
REMARK    2  A    between atoms: _3  and  _4
REMARK    3  A    between atoms: _3  and  _6
REMARK    4  A    between atoms: _6  and  _7
REMARK    5  A    between atoms: _7  and  _8
REMARK    6  A    between atoms: _8  and  _9
REMARK    7  A    between atoms: _18  and  _20
REMARK    8  A    between atoms: _20  and  _21
REMARK    9  A    between atoms: _20  and  _23
REMARK   10  A    between atoms: _23  and  _24
REMARK   11  A    between atoms: _27  and  _29
REMARK   12  A    between atoms: _29  and  _30
REMARK   13  A    between atoms: _29  and  _32
REMARK   14  A    between atoms: _32  and  _33
REMARK   15  A    between atoms: _36  and  _38
REMARK   16  A    between atoms: _38  and  _39
REMARK   17  A    between atoms: _38  and  _41
REMARK   18  A    between atoms: _41  and  _42
REMARK   19  A    between atoms: _45  and  _47
REMARK   20  A    between atoms: _47  and  _48
REMARK   21  A    between atoms: _47  and  _50
REMARK   22  A    between atoms: _50  and  _51
REMARK   23  A    between atoms: _54  and  _56
REMARK   24  A    between atoms: _56  and  _57
REMARK   25  A    between atoms: _59  and  _61
REMARK   26  A    between atoms: _61  and  _62
REMARK   27  A    between atoms: _65  and  _67
REMARK   28  A    between atoms: _67  and  _68
REMARK   29  A    between atoms: _67  and  _70
REMARK   30  A    between atoms: _70  and  _71
REMARK   31  A    between atoms: _74  and  _76
REMARK   32  A    between atoms: _76  and  _77
REMARK   33  A    between atoms: _76  and  _79
REMARK   34  A    between atoms: _79  and  _80
REMARK   35  A    between atoms: _83  and  _85
REMARK   36  A    between atoms: _85  and  _86
REMARK   37  A    between atoms: _85  and  _88
REMARK   38  A    between atoms: _88  and  _89
REMARK   39  A    between atoms: _92  and  _94
REMARK   40  A    between atoms: _94  and  _95
REMARK   41  A    between atoms: _94  and  _97
REMARK   42  A    between atoms: _100  and  _102
REMARK   43  A    between atoms: _102  and  _103
REMARK   44  A    between atoms: _102  and  _105
REMARK   45  A    between atoms: _105  and  _106
REMARK   46  A    between atoms: _106  and  _107
REMARK   47  A    between atoms: _107  and  _108
REMARK   48  A    between atoms: _108  and  _109
REMARK   49  A    between atoms: _113  and  _115
REMARK   50  A    between atoms: _115  and  _116
REMARK   51  A    between atoms: _115  and  _118
REMARK   52  A    between atoms: _118  and  _119
REMARK   53  A    between atoms: _122  and  _124
REMARK   54  A    between atoms: _124  and  _125
REMARK   55  A    between atoms: _127  and  _129
REMARK   56  A    between atoms: _129  and  _130
REMARK   57  A    between atoms: _132  and  _134
REMARK   58  A    between atoms: _134  and  _135
REMARK   59  A    between atoms: _134  and  _137
REMARK   60  A    between atoms: _137  and  _138
REMARK   61  A    between atoms: _141  and  _143
REMARK   62  A    between atoms: _143  and  _144
REMARK   63  A    between atoms: _146  and  _148
REMARK   64  A    between atoms: _148  and  _149
REMARK   65  A    between atoms: _151  and  _153
REMARK   66  A    between atoms: _153  and  _154
REMARK   67  A    between atoms: _153  and  _156
REMARK   68  A    between atoms: _156  and  _157
REMARK   69  A    between atoms: _163  and  _165
REMARK   70  A    between atoms: _165  and  _166
REMARK   71  A    between atoms: _165  and  _168
REMARK   72  A    between atoms: _168  and  _169
REMARK   73  A    between atoms: _173  and  _174
REMARK   74  A    between atoms: _179  and  _181
REMARK   75  A    between atoms: _181  and  _182
REMARK   76  A    between atoms: _181  and  _184
REMARK   77  A    between atoms: _187  and  _189
REMARK   78  A    between atoms: _189  and  _190
REMARK   79  A    between atoms: _189  and  _192
REMARK   80  A    between atoms: _192  and  _193
REMARK   81  A    between atoms: _198  and  _200
REMARK   82  A    between atoms: _200  and  _201
REMARK   83  A    between atoms: _200  and  _203
REMARK   84  A    between atoms: _203  and  _204
REMARK   85  A    between atoms: _207  and  _209
REMARK   86  A    between atoms: _209  and  _210
REMARK   87  A    between atoms: _209  and  _212
REMARK   88  A    between atoms: _212  and  _213
REMARK   89  A    between atoms: _216  and  _218
REMARK   90  A    between atoms: _218  and  _219
REMARK   91  A    between atoms: _221  and  _223
REMARK   92  A    between atoms: _223  and  _224
REMARK   93  A    between atoms: _223  and  _226
REMARK   94  A    between atoms: _226  and  _227
REMARK   95  A    between atoms: _227  and  _228
REMARK   96  A    between atoms: _228  and  _229
REMARK   97  A    between atoms: _238  and  _240
REMARK   98  A    between atoms: _240  and  _241
REMARK   99  A    between atoms: _240  and  _243
REMARK  100  A    between atoms: _243  and  _244
REMARK  101  A    between atoms: _244  and  _245
REMARK  102  A    between atoms: _245  and  _246
REMARK  103  A    between atoms: _255  and  _257
REMARK  104  A    between atoms: _257  and  _258
REMARK  105  A    between atoms: _257  and  _260
REMARK  106  A    between atoms: _260  and  _261
REMARK  107  A    between atoms: _264  and  _266
REMARK  108  A    between atoms: _266  and  _267
REMARK  109  A    between atoms: _266  and  _269
REMARK  110  A    between atoms: _269  and  _270
REMARK  111  A    between atoms: _273  and  _275
REMARK  112  A    between atoms: _275  and  _276
REMARK  113  A    between atoms: _275  and  _278
REMARK  114  A    between atoms: _278  and  _279
REMARK  115  A    between atoms: _282  and  _284
REMARK  116  A    between atoms: _284  and  _285
REMARK  117  A    between atoms: _284  and  _287
REMARK  118  A    between atoms: _287  and  _288
REMARK  119  A    between atoms: _291  and  _293
REMARK  120  A    between atoms: _293  and  _294
REMARK  121  A    between atoms: _296  and  _298
REMARK  122  A    between atoms: _298  and  _299
REMARK  123  A    between atoms: _302  and  _304
REMARK  124  A    between atoms: _304  and  _305
REMARK  125  A    between atoms: _304  and  _307
REMARK  126  A    between atoms: _307  and  _308
REMARK  127  A    between atoms: _311  and  _313
REMARK  128  A    between atoms: _313  and  _314
REMARK  129  A    between atoms: _313  and  _316
REMARK  130  A    between atoms: _316  and  _317
REMARK  131  A    between atoms: _320  and  _322
REMARK  132  A    between atoms: _322  and  _323
REMARK  133  A    between atoms: _322  and  _325
REMARK  134  A    between atoms: _325  and  _326
REMARK  135  A    between atoms: _329  and  _331
REMARK  136  A    between atoms: _331  and  _332
REMARK  137  A    between atoms: _331  and  _334
REMARK  138  A    between atoms: _337  and  _339
REMARK  139  A    between atoms: _339  and  _340
REMARK  140  A    between atoms: _339  and  _342
REMARK  141  A    between atoms: _342  and  _343
REMARK  142  A    between atoms: _343  and  _344
REMARK  143  A    between atoms: _344  and  _345
REMARK  144  A    between atoms: _345  and  _346
REMARK  145  A    between atoms: _350  and  _352
REMARK  146  A    between atoms: _352  and  _353
REMARK  147  A    between atoms: _352  and  _355
REMARK  148  A    between atoms: _355  and  _356
REMARK  149  A    between atoms: _356  and  _357
REMARK  150  A    between atoms: _359  and  _361
REMARK  151  A    between atoms: _361  and  _362
REMARK  152  A    between atoms: _361  and  _364
REMARK  153  A    between atoms: _364  and  _365
REMARK  154  A    between atoms: _368  and  _370
REMARK  155  A    between atoms: _370  and  _371
REMARK  156  A    between atoms: _373  and  _375
REMARK  157  A    between atoms: _375  and  _376
REMARK  158  A    between atoms: _378  and  _380
REMARK  159  A    between atoms: _380  and  _381
REMARK  160  A    between atoms: _380  and  _383
REMARK  161  A    between atoms: _383  and  _384
REMARK  162  A    between atoms: _387  and  _389
REMARK  163  A    between atoms: _389  and  _390
REMARK  164  A    between atoms: _392  and  _394
REMARK  165  A    between atoms: _394  and  _395
REMARK  166  A    between atoms: _397  and  _399
REMARK  167  A    between atoms: _399  and  _400
REMARK  168  A    between atoms: _399  and  _402
REMARK  169  A    between atoms: _402  and  _403
REMARK  170  A    between atoms: _409  and  _411
REMARK  171  A    between atoms: _411  and  _412
REMARK  172  A    between atoms: _411  and  _414
REMARK  173  A    between atoms: _414  and  _415
REMARK  174  A    between atoms: _418  and  _420
REMARK  175  A    between atoms: _420  and  _421
REMARK  176  A    between atoms: _420  and  _423
REMARK  177  A    between atoms: _426  and  _428
REMARK  178  A    between atoms: _428  and  _429
REMARK  179  A    between atoms: _428  and  _431
REMARK  180  A    between atoms: _431  and  _432
REMARK  181  A    between atoms: _436  and  _437
REMARK  182  A    between atoms: _442  and  _444
REMARK  183  A    between atoms: _444  and  _445
REMARK  184  A    between atoms: _444  and  _447
REMARK  185  A    between atoms: _447  and  _448
REMARK  186  A    between atoms: _452  and  _453
REMARK  187  A    between atoms: _458  and  _460
REMARK  188  A    between atoms: _460  and  _461
REMARK  189  A    between atoms: _460  and  _463
REMARK  190  A    between atoms: _466  and  _468
REMARK  191  A    between atoms: _468  and  _469
REMARK  192  A    between atoms: _468  and  _471
REMARK  193  A    between atoms: _471  and  _472
REMARK  194  A    between atoms: _477  and  _479
REMARK  195  A    between atoms: _479  and  _480
REMARK  196  A    between atoms: _479  and  _482
REMARK  197  A    between atoms: _482  and  _483
REMARK  198  A    between atoms: _486  and  _488
REMARK  199  A    between atoms: _488  and  _489
REMARK  200  A    between atoms: _488  and  _491
REMARK  201  A    between atoms: _491  and  _492
REMARK  202  A    between atoms: _495  and  _497
REMARK  203  A    between atoms: _497  and  _498
REMARK  204  A    between atoms: _500  and  _502
REMARK  205  A    between atoms: _502  and  _503
REMARK  206  A    between atoms: _502  and  _505
REMARK  207  A    between atoms: _505  and  _506
REMARK  208  A    between atoms: _506  and  _507
REMARK  209  A    between atoms: _507  and  _508
REMARK  210  A    between atoms: _517  and  _519
REMARK  211  A    between atoms: _519  and  _520
REMARK  212  A    between atoms: _519  and  _522
REMARK  213  A    between atoms: _522  and  _523
REMARK                            x       y       z     vdW  Elec       q    Type
REMARK                         _______ _______ _______ _____ _____    ______ ____
ROOT
ATOM      1  C   GLY A   5      21.443  35.825  11.382  0.00  0.00    +0.243 C 
ATOM      2  N   ILE A   6      21.896  34.617  11.075  0.00  0.00    -0.297 N 
ATOM      3  H   ILE A   6      21.603  33.806  11.656  0.00  0.00    +0.150 HD
ATOM      4  O   GLY A   5      21.808  36.852  10.802  0.00  0.00    -0.273 OA
ENDROOT
BRANCH   2   5
ATOM      5  CA  ILE A   6      22.792  34.393   9.948  0.00  0.00    +0.149 C 
BRANCH   5   6
ATOM      6  C   ILE A   6      22.071  34.809   8.655  0.00  0.00    +0.241 C 
ATOM      7  O   ILE A   6      20.925  34.424   8.425  0.00  0.00    -0.273 OA
ATOM      8  N   GLY A   7      22.745  35.624   7.843  0.00  0.00    -0.295 N 
ATOM      9  H   GLY A   7      23.706  35.913   8.115  0.00  0.00    +0.150 HD
BRANCH   8  10
ATOM     10  CA  GLY A   7      22.190  36.131   6.583  0.00  0.00    +0.176 C 
BRANCH  10  11
ATOM     11  C   GLY A   7      21.363  37.405   6.703  0.00  0.00    +0.243 C 
ATOM     12  N   GLY A   8      21.152  37.896   7.920  0.00  0.00    -0.295 N 
ATOM     13  H   GLY A   8      21.510  37.373   8.744  0.00  0.00    +0.150 HD
ATOM     14  O   GLY A   7      20.915  37.938   5.692  0.00  0.00    -0.273 OA
BRANCH  12  15
ATOM     15  CA  GLY A   8      20.434  39.147   8.133  0.00  0.00    +0.176 C 
BRANCH  15  16
ATOM     16  C   GLY A   8      19.099  38.971   8.831  0.00  0.00    +0.243 C 
ATOM     17  O   GLY A   8      18.934  38.081   9.674  0.00  0.00    -0.273 OA
ATOM     18  N   PHE A   9      18.137  39.826   8.485  0.00  0.00    -0.297 N 
ATOM     19  H   PHE A   9      18.262  40.422   7.642  0.00  0.00    +0.150 HD
BRANCH  18  20
ATOM     20  CA  PHE A   9      16.916  39.939   9.266  0.00  0.00    +0.153 C 
BRANCH  20  21
ATOM     21  C   PHE A   9      15.711  39.441   8.499  0.00  0.00    +0.241 C 
ATOM     22  N   ILE A  10      14.703  38.986   9.242  0.00  0.00    -0.298 N 
ATOM     23  H   ILE A  10      14.877  38.756  10.241  0.00  0.00    +0.150 HD
ATOM     24  O   PHE A   9      15.683  39.502   7.266  0.00  0.00    -0.273 OA
BRANCH  22  25
ATOM     25  CA  ILE A  10      13.360  38.801   8.695  0.00  0.00    +0.137 C 
BRANCH  25  26
ATOM     26  C   ILE A  10      12.360  39.611   9.504  0.00  0.00    +0.227 C 
ATOM     27  O   ILE A  10      12.600  39.918  10.684  0.00  0.00    -0.286 OA
ENDBRANCH  25  26
BRANCH  25  28
ATOM     28  CB  ILE A  10      12.913  37.314   8.662  0.00  0.00    +0.026 C 
ATOM     29  CG2 ILE A  10      13.740  36.544   7.650  0.00  0.00    +0.002 C 
BRANCH  28  30
ATOM     30  CG1 ILE A  10      13.010  36.671  10.045  0.00  0.00    +0.002 C 
ATOM     31  CD1 ILE A  10      12.167  35.411  10.177  0.00  0.00    +0.000 C 
ENDBRANCH  28  30
ENDBRANCH  25  28
ENDBRANCH  22  25
ENDBRANCH  20  21
BRANCH  20  32
ATOM     32  CB  PHE A   9      16.674  41.401   9.666  0.00  0.00    +0.055 C 
BRANCH  32  33
ATOM     33  CG  PHE A   9      17.563  41.883  10.780  0.00  0.00    -0.020 A 
ATOM     34  CD2 PHE A   9      17.063  42.081  12.048  0.00  0.00    -0.004 A 
ATOM     35  CE2 PHE A   9      17.889  42.519  13.072  0.00  0.00    -0.000 A 
ATOM     36  CZ  PHE A   9      19.224  42.763  12.825  0.00  0.00    -0.000 A 
ATOM     37  CE1 PHE A   9      19.734  42.572  11.571  0.00  0.00    -0.000 A 
ATOM     38  CD1 PHE A   9      18.909  42.134  10.551  0.00  0.00    -0.004 A 
ENDBRANCH  32  33
ENDBRANCH  20  32
ENDBRANCH  18  20
ENDBRANCH  15  16
ENDBRANCH  12  15
ENDBRANCH  10  11
ENDBRANCH   8  10
ENDBRANCH   5   6
BRANCH   5  39
ATOM     39  CB  ILE A   6      23.278  32.924   9.890  0.00  0.00    +0.027 C 
ATOM     40  CG2 ILE A   6      23.971  32.611   8.546  0.00  0.00    +0.002 C 
BRANCH  39  41
ATOM     41  CG1 ILE A   6      24.243  32.636  11.052  0.00  0.00    +0.002 C 
ATOM     42  CD1 ILE A   6      24.556  31.172  11.240  0.00  0.00    +0.000 C 
ENDBRANCH  39  41
ENDBRANCH   5  39
ENDBRANCH   2   5
BRANCH   1  43
ATOM     43  CA  GLY A   5      20.401  35.885  12.481  0.00  0.00    +0.176 C 
BRANCH  43  46
ATOM     44  C   GLY A   4      18.988  37.658  13.359  0.00  0.00    +0.243 C 
ATOM     45  O   GLY A   4      18.977  37.171  14.490  0.00  0.00    -0.273 OA
ATOM     46  N   GLY A   5      19.588  37.080  12.331  0.00  0.00    -0.295 N 
ATOM     47  H   GLY A   5      19.474  37.495  11.384  0.00  0.00    +0.150 HD
BRANCH  44  48
ATOM     48  CA  GLY A   4      18.312  38.982  13.057  0.00  0.00    +0.176 C 
BRANCH  48  50
ATOM     49  C   ILE A   3      15.893  39.223  13.229  0.00  0.00    +0.241 C 
ATOM     50  N   GLY A   4      17.089  39.183  13.808  0.00  0.00    -0.295 N 
ATOM     51  H   GLY A   4      17.149  39.300  14.840  0.00  0.00    +0.150 HD
ATOM     52  O   ILE A   3      15.688  38.981  12.034  0.00  0.00    -0.273 OA
BRANCH  49  53
ATOM     53  CA  ILE A   3      14.752  39.606  14.150  0.00  0.00    +0.149 C 
BRANCH  53  56
ATOM     54  C   MET A   2      13.362  41.585  13.875  0.00  0.00    +0.241 C 
ATOM     55  O   MET A   2      13.590  41.981  15.027  0.00  0.00    -0.273 OA
ATOM     56  N   ILE A   3      13.787  40.413  13.408  0.00  0.00    -0.297 N 
ATOM     57  H   ILE A   3      13.425  40.065  12.497  0.00  0.00    +0.150 HD
BRANCH  54  58
ATOM     58  CA  MET A   2      12.525  42.429  12.931  0.00  0.00    +0.149 C 
BRANCH  58  60
ATOM     59  C   LYS A   1      10.157  42.633  13.542  0.00  0.00    +0.238 C 
ATOM     60  N   MET A   2      11.428  43.002  13.700  0.00  0.00    -0.297 N 
ATOM     61  H   MET A   2      11.647  43.734  14.406  0.00  0.00    +0.150 HD
ATOM     62  O   LYS A   1       9.760  41.930  12.620  0.00  0.00    -0.274 OA
BRANCH  59  63
ATOM     63  CA  LYS A   1       9.173  43.174  14.574  0.00  0.00    +0.145 C 
BRANCH  63  64
ATOM     64  N   LYS A   1       7.850  43.200  13.980  0.00  0.00    -0.238 NA
ATOM     65  H   LYS A   1       7.630  42.517  13.227  0.00  0.00    +0.142 HD
ENDBRANCH  63  64
BRANCH  63  66
ATOM     66  CB  LYS A   1       9.141  42.261  15.810  0.00  0.00    +0.026 C 
BRANCH  66  67
ATOM     67  CG  LYS A   1      10.432  42.157  16.575  0.00  0.00    -0.000 C 
BRANCH  67  68
ATOM     68  CD  LYS A   1      10.241  41.428  17.899  0.00  0.00    -0.024 C 
BRANCH  68  69
ATOM     69  CE  LYS A   1      11.563  41.356  18.661  0.00  0.00    -0.086 C 
BRANCH  69  70
ATOM     70  NZ  LYS A   1      11.382  41.252  20.129  0.00  0.00    +0.380 N 
ATOM     71  HZ1 LYS A   1      12.313  41.207  20.590  0.00  0.00    -0.089 HD
ATOM     72  HZ2 LYS A   1      10.864  42.085  20.473  0.00  0.00    -0.089 HD
ATOM     73  HZ3 LYS A   1      10.842  40.391  20.350  0.00  0.00    -0.089 HD
ENDBRANCH  69  70
ENDBRANCH  68  69
ENDBRANCH  67  68
ENDBRANCH  66  67
ENDBRANCH  63  66
ENDBRANCH  59  63
ENDBRANCH  58  60
BRANCH  58  74
ATOM     74  CB  MET A   2      13.400  43.533  12.333  0.00  0.00    +0.041 C 
BRANCH  74  75
ATOM     75  CG  MET A   2      12.676  44.420  11.349  0.00  0.00    +0.060 C 
BRANCH  75  76
ATOM     76  SD  MET A   2      12.393  43.582   9.788  0.00  0.00    -0.139 S 
ATOM     77  CE  MET A   2      13.995  43.754   9.021  0.00  0.00    +0.069 C 
ENDBRANCH  75  76
ENDBRANCH  74  75
ENDBRANCH  58  74
ENDBRANCH  54  58
ENDBRANCH  53  56
BRANCH  53  78
ATOM     78  CB  ILE A   3      14.135  38.346  14.806  0.00  0.00    +0.027 C 
ATOM     79  CG2 ILE A   3      13.095  38.744  15.857  0.00  0.00    +0.002 C 
BRANCH  78  80
ATOM     80  CG1 ILE A   3      13.542  37.397  13.768  0.00  0.00    +0.002 C 
ATOM     81  CD1 ILE A   3      13.099  36.071  14.362  0.00  0.00    +0.000 C 
ENDBRANCH  78  80
ENDBRANCH  53  78
ENDBRANCH  49  53
ENDBRANCH  48  50
ENDBRANCH  44  48
ENDBRANCH  43  46
ENDBRANCH   1  43
TORSDOF 36
REMARK  Name = ../refined-set-2016/3gi5/3gi5_pocket.pdb
REMARK  213 active torsions:
REMARK  status: ('A' for Active; 'I' for Inactive)
REMARK    1  A    between atoms: _1  and  _3
REMARK    2  A    between atoms: _3  and  _4
REMARK    3  A    between atoms: _3  and  _6
REMARK    4  A    between atoms: _6  and  _7
REMARK    5  A    between atoms: _7  and  _8
REMARK    6  A    between atoms: _8  and  _9
REMARK    7  A    between atoms: _18  and  _20
REMARK    8  A    between atoms: _20  and  _21
REMARK    9  A    between atoms: _20  and  _23
REMARK   10  A    between atoms: _23  and  _24
REMARK   11  A    between atoms: _27  and  _29
REMARK   12  A    between atoms: _29  and  _30
REMARK   13  A    between atoms: _29  and  _32
REMARK   14  A    between atoms: _32  and  _33
REMARK   15  A    between atoms: _36  and  _38
REMARK   16  A    between atoms: _38  and  _39
REMARK   17  A    between atoms: _38  and  _41
REMARK   18  A    between atoms: _41  and  _42
REMARK   19  A    between atoms: _45  and  _47
REMARK   20  A    between atoms: _47  and  _48
REMARK   21  A    between atoms: _47  and  _50
REMARK   22  A    between atoms: _50  and  _51
REMARK   23  A    between atoms: _54  and  _56
REMARK   24  A    between atoms: _56  and  _57
REMARK   25  A    between atoms: _59  and  _61
REMARK   26  A    between atoms: _61  and  _62
REMARK   27  A    between atoms: _65  and  _67
REMARK   28  A    between atoms: _67  and  _68
REMARK   29  A    between atoms: _67  and  _70
REMARK   30  A    between atoms: _70  and  _71
REMARK   31  A    between atoms: _74  and  _76
REMARK   32  A    between atoms: _76  and  _77
REMARK   33  A    between atoms: _76  and  _79
REMARK   34  A    between atoms: _79  and  _80
REMARK   35  A    between atoms: _83  and  _85
REMARK   36  A    between atoms: _85  and  _86
REMARK   37  A    between atoms: _85  and  _88
REMARK   38  A    between atoms: _88  and  _89
REMARK   39  A    between atoms: _92  and  _94
REMARK   40  A    between atoms: _94  and  _95
REMARK   41  A    between atoms: _94  and  _97
REMARK   42  A    between atoms: _100  and  _102
REMARK   43  A    between atoms: _102  and  _103
REMARK   44  A    between atoms: _102  and  _105
REMARK   45  A    between atoms: _105  and  _106
REMARK   46  A    between atoms: _106  and  _107
REMARK   47  A    between atoms: _107  and  _108
REMARK   48  A    between atoms: _108  and  _109
REMARK   49  A    between atoms: _113  and  _115
REMARK   50  A    between atoms: _115  and  _116
REMARK   51  A    between atoms: _115  and  _118
REMARK   52  A    between atoms: _118  and  _119
REMARK   53  A    between atoms: _122  and  _124
REMARK   54  A    between atoms: _124  and  _125
REMARK   55  A    between atoms: _127  and  _129
REMARK   56  A    between atoms: _129  and  _130
REMARK   57  A    between atoms: _132  and  _134
REMARK   58  A    between atoms: _134  and  _135
REMARK   59  A    between atoms: _134  and  _137
REMARK   60  A    between atoms: _137  and  _138
REMARK   61  A    between atoms: _141  and  _143
REMARK   62  A    between atoms: _143  and  _144
REMARK   63  A    between atoms: _146  and  _148
REMARK   64  A    between atoms: _148  and  _149
REMARK   65  A    between atoms: _151  and  _153
REMARK   66  A    between atoms: _153  and  _154
REMARK   67  A    between atoms: _153  and  _156
REMARK   68  A    between atoms: _156  and  _157
REMARK   69  A    between atoms: _163  and  _165
REMARK   70  A    between atoms: _165  and  _166
REMARK   71  A    between atoms: _165  and  _168
REMARK   72  A    between atoms: _168  and  _169
REMARK   73  A    between atoms: _173  and  _174
REMARK   74  A    between atoms: _179  and  _181
REMARK   75  A    between atoms: _181  and  _182
REMARK   76  A    between atoms: _181  and  _184
REMARK   77  A    between atoms: _187  and  _189
REMARK   78  A    between atoms: _189  and  _190
REMARK   79  A    between atoms: _189  and  _192
REMARK   80  A    between atoms: _192  and  _193
REMARK   81  A    between atoms: _198  and  _200
REMARK   82  A    between atoms: _200  and  _201
REMARK   83  A    between atoms: _200  and  _203
REMARK   84  A    between atoms: _203  and  _204
REMARK   85  A    between atoms: _207  and  _209
REMARK   86  A    between atoms: _209  and  _210
REMARK   87  A    between atoms: _209  and  _212
REMARK   88  A    between atoms: _212  and  _213
REMARK   89  A    between atoms: _216  and  _218
REMARK   90  A    between atoms: _218  and  _219
REMARK   91  A    between atoms: _221  and  _223
REMARK   92  A    between atoms: _223  and  _224
REMARK   93  A    between atoms: _223  and  _226
REMARK   94  A    between atoms: _226  and  _227
REMARK   95  A    between atoms: _227  and  _228
REMARK   96  A    between atoms: _228  and  _229
REMARK   97  A    between atoms: _238  and  _240
REMARK   98  A    between atoms: _240  and  _241
REMARK   99  A    between atoms: _240  and  _243
REMARK  100  A    between atoms: _243  and  _244
REMARK  101  A    between atoms: _244  and  _245
REMARK  102  A    between atoms: _245  and  _246
REMARK  103  A    between atoms: _255  and  _257
REMARK  104  A    between atoms: _257  and  _258
REMARK  105  A    between atoms: _257  and  _260
REMARK  106  A    between atoms: _260  and  _261
REMARK  107  A    between atoms: _264  and  _266
REMARK  108  A    between atoms: _266  and  _267
REMARK  109  A    between atoms: _266  and  _269
REMARK  110  A    between atoms: _269  and  _270
REMARK  111  A    between atoms: _273  and  _275
REMARK  112  A    between atoms: _275  and  _276
REMARK  113  A    between atoms: _275  and  _278
REMARK  114  A    between atoms: _278  and  _279
REMARK  115  A    between atoms: _282  and  _284
REMARK  116  A    between atoms: _284  and  _285
REMARK  117  A    between atoms: _284  and  _287
REMARK  118  A    between atoms: _287  and  _288
REMARK  119  A    between atoms: _291  and  _293
REMARK  120  A    between atoms: _293  and  _294
REMARK  121  A    between atoms: _296  and  _298
REMARK  122  A    between atoms: _298  and  _299
REMARK  123  A    between atoms: _302  and  _304
REMARK  124  A    between atoms: _304  and  _305
REMARK  125  A    between atoms: _304  and  _307
REMARK  126  A    between atoms: _307  and  _308
REMARK  127  A    between atoms: _311  and  _313
REMARK  128  A    between atoms: _313  and  _314
REMARK  129  A    between atoms: _313  and  _316
REMARK  130  A    between atoms: _316  and  _317
REMARK  131  A    between atoms: _320  and  _322
REMARK  132  A    between atoms: _322  and  _323
REMARK  133  A    between atoms: _322  and  _325
REMARK  134  A    between atoms: _325  and  _326
REMARK  135  A    between atoms: _329  and  _331
REMARK  136  A    between atoms: _331  and  _332
REMARK  137  A    between atoms: _331  and  _334
REMARK  138  A    between atoms: _337  and  _339
REMARK  139  A    between atoms: _339  and  _340
REMARK  140  A    between atoms: _339  and  _342
REMARK  141  A    between atoms: _342  and  _343
REMARK  142  A    between atoms: _343  and  _344
REMARK  143  A    between atoms: _344  and  _345
REMARK  144  A    between atoms: _345  and  _346
REMARK  145  A    between atoms: _350  and  _352
REMARK  146  A    between atoms: _352  and  _353
REMARK  147  A    between atoms: _352  and  _355
REMARK  148  A    between atoms: _355  and  _356
REMARK  149  A    between atoms: _356  and  _357
REMARK  150  A    between atoms: _359  and  _361
REMARK  151  A    between atoms: _361  and  _362
REMARK  152  A    between atoms: _361  and  _364
REMARK  153  A    between atoms: _364  and  _365
REMARK  154  A    between atoms: _368  and  _370
REMARK  155  A    between atoms: _370  and  _371
REMARK  156  A    between atoms: _373  and  _375
REMARK  157  A    between atoms: _375  and  _376
REMARK  158  A    between atoms: _378  and  _380
REMARK  159  A    between atoms: _380  and  _381
REMARK  160  A    between atoms: _380  and  _383
REMARK  161  A    between atoms: _383  and  _384
REMARK  162  A    between atoms: _387  and  _389
REMARK  163  A    between atoms: _389  and  _390
REMARK  164  A    between atoms: _392  and  _394
REMARK  165  A    between atoms: _394  and  _395
REMARK  166  A    between atoms: _397  and  _399
REMARK  167  A    between atoms: _399  and  _400
REMARK  168  A    between atoms: _399  and  _402
REMARK  169  A    between atoms: _402  and  _403
REMARK  170  A    between atoms: _409  and  _411
REMARK  171  A    between atoms: _411  and  _412
REMARK  172  A    between atoms: _411  and  _414
REMARK  173  A    between atoms: _414  and  _415
REMARK  174  A    between atoms: _418  and  _420
REMARK  175  A    between atoms: _420  and  _421
REMARK  176  A    between atoms: _420  and  _423
REMARK  177  A    between atoms: _426  and  _428
REMARK  178  A    between atoms: _428  and  _429
REMARK  179  A    between atoms: _428  and  _431
REMARK  180  A    between atoms: _431  and  _432
REMARK  181  A    between atoms: _436  and  _437
REMARK  182  A    between atoms: _442  and  _444
REMARK  183  A    between atoms: _444  and  _445
REMARK  184  A    between atoms: _444  and  _447
REMARK  185  A    between atoms: _447  and  _448
REMARK  186  A    between atoms: _452  and  _453
REMARK  187  A    between atoms: _458  and  _460
REMARK  188  A    between atoms: _460  and  _461
REMARK  189  A    between atoms: _460  and  _463
REMARK  190  A    between atoms: _466  and  _468
REMARK  191  A    between atoms: _468  and  _469
REMARK  192  A    between atoms: _468  and  _471
REMARK  193  A    between atoms: _471  and  _472
REMARK  194  A    between atoms: _477  and  _479
REMARK  195  A    between atoms: _479  and  _480
REMARK  196  A    between atoms: _479  and  _482
REMARK  197  A    between atoms: _482  and  _483
REMARK  198  A    between atoms: _486  and  _488
REMARK  199  A    between atoms: _488  and  _489
REMARK  200  A    between atoms: _488  and  _491
REMARK  201  A    between atoms: _491  and  _492
REMARK  202  A    between atoms: _495  and  _497
REMARK  203  A    between atoms: _497  and  _498
REMARK  204  A    between atoms: _500  and  _502
REMARK  205  A    between atoms: _502  and  _503
REMARK  206  A    between atoms: _502  and  _505
REMARK  207  A    between atoms: _505  and  _506
REMARK  208  A    between atoms: _506  and  _507
REMARK  209  A    between atoms: _507  and  _508
REMARK  210  A    between atoms: _517  and  _519
REMARK  211  A    between atoms: _519  and  _520
REMARK  212  A    between atoms: _519  and  _522
REMARK  213  A    between atoms: _522  and  _523
REMARK                            x       y       z     vdW  Elec       q    Type
REMARK                         _______ _______ _______ _____ _____    ______ ____
ROOT
ATOM      1  CA  VAL A   1       7.866  38.775  11.932  0.00  0.00    +0.133 C 
ENDROOT
BRANCH   1   2
ATOM      2  CB  VAL A   1       8.577  37.943  13.027  0.00  0.00    +0.023 C 
ATOM      3  CG2 VAL A   1       9.125  38.839  14.143  0.00  0.00    +0.002 C 
ATOM      4  CG1 VAL A   1       9.683  37.104  12.425  0.00  0.00    +0.002 C 
ENDBRANCH   1   2
BRANCH   1   5
ATOM      5  N   VAL A   1       8.777  39.711  11.281  0.00  0.00    -0.239 NA
ATOM      6  H   VAL A   1       9.101  40.546  11.809  0.00  0.00    +0.142 HD
ENDBRANCH   1   5
BRANCH   1   7
ATOM      7  C   VAL A   1       6.700  39.524  12.564  0.00  0.00    +0.224 C 
ATOM      8  O   VAL A   1       6.746  40.757  12.724  0.00  0.00    -0.287 OA
ENDBRANCH   1   7
TORSDOF 3
REMARK  Name = ../refined-set-2016/3gi5/3gi5_pocket.pdb
REMARK  213 active torsions:
REMARK  status: ('A' for Active; 'I' for Inactive)
REMARK    1  A    between atoms: _1  and  _3
REMARK    2  A    between atoms: _3  and  _4
REMARK    3  A    between atoms: _3  and  _6
REMARK    4  A    between atoms: _6  and  _7
REMARK    5  A    between atoms: _7  and  _8
REMARK    6  A    between atoms: _8  and  _9
REMARK    7  A    between atoms: _18  and  _20
REMARK    8  A    between atoms: _20  and  _21
REMARK    9  A    between atoms: _20  and  _23
REMARK   10  A    between atoms: _23  and  _24
REMARK   11  A    between atoms: _27  and  _29
REMARK   12  A    between atoms: _29  and  _30
REMARK   13  A    between atoms: _29  and  _32
REMARK   14  A    between atoms: _32  and  _33
REMARK   15  A    between atoms: _36  and  _38
REMARK   16  A    between atoms: _38  and  _39
REMARK   17  A    between atoms: _38  and  _41
REMARK   18  A    between atoms: _41  and  _42
REMARK   19  A    between atoms: _45  and  _47
REMARK   20  A    between atoms: _47  and  _48
REMARK   21  A    between atoms: _47  and  _50
REMARK   22  A    between atoms: _50  and  _51
REMARK   23  A    between atoms: _54  and  _56
REMARK   24  A    between atoms: _56  and  _57
REMARK   25  A    between atoms: _59  and  _61
REMARK   26  A    between atoms: _61  and  _62
REMARK   27  A    between atoms: _65  and  _67
REMARK   28  A    between atoms: _67  and  _68
REMARK   29  A    between atoms: _67  and  _70
REMARK   30  A    between atoms: _70  and  _71
REMARK   31  A    between atoms: _74  and  _76
REMARK   32  A    between atoms: _76  and  _77
REMARK   33  A    between atoms: _76  and  _79
REMARK   34  A    between atoms: _79  and  _80
REMARK   35  A    between atoms: _83  and  _85
REMARK   36  A    between atoms: _85  and  _86
REMARK   37  A    between atoms: _85  and  _88
REMARK   38  A    between atoms: _88  and  _89
REMARK   39  A    between atoms: _92  and  _94
REMARK   40  A    between atoms: _94  and  _95
REMARK   41  A    between atoms: _94  and  _97
REMARK   42  A    between atoms: _100  and  _102
REMARK   43  A    between atoms: _102  and  _103
REMARK   44  A    between atoms: _102  and  _105
REMARK   45  A    between atoms: _105  and  _106
REMARK   46  A    between atoms: _106  and  _107
REMARK   47  A    between atoms: _107  and  _108
REMARK   48  A    between atoms: _108  and  _109
REMARK   49  A    between atoms: _113  and  _115
REMARK   50  A    between atoms: _115  and  _116
REMARK   51  A    between atoms: _115  and  _118
REMARK   52  A    between atoms: _118  and  _119
REMARK   53  A    between atoms: _122  and  _124
REMARK   54  A    between atoms: _124  and  _125
REMARK   55  A    between atoms: _127  and  _129
REMARK   56  A    between atoms: _129  and  _130
REMARK   57  A    between atoms: _132  and  _134
REMARK   58  A    between atoms: _134  and  _135
REMARK   59  A    between atoms: _134  and  _137
REMARK   60  A    between atoms: _137  and  _138
REMARK   61  A    between atoms: _141  and  _143
REMARK   62  A    between atoms: _143  and  _144
REMARK   63  A    between atoms: _146  and  _148
REMARK   64  A    between atoms: _148  and  _149
REMARK   65  A    between atoms: _151  and  _153
REMARK   66  A    between atoms: _153  and  _154
REMARK   67  A    between atoms: _153  and  _156
REMARK   68  A    between atoms: _156  and  _157
REMARK   69  A    between atoms: _163  and  _165
REMARK   70  A    between atoms: _165  and  _166
REMARK   71  A    between atoms: _165  and  _168
REMARK   72  A    between atoms: _168  and  _169
REMARK   73  A    between atoms: _173  and  _174
REMARK   74  A    between atoms: _179  and  _181
REMARK   75  A    between atoms: _181  and  _182
REMARK   76  A    between atoms: _181  and  _184
REMARK   77  A    between atoms: _187  and  _189
REMARK   78  A    between atoms: _189  and  _190
REMARK   79  A    between atoms: _189  and  _192
REMARK   80  A    between atoms: _192  and  _193
REMARK   81  A    between atoms: _198  and  _200
REMARK   82  A    between atoms: _200  and  _201
REMARK   83  A    between atoms: _200  and  _203
REMARK   84  A    between atoms: _203  and  _204
REMARK   85  A    between atoms: _207  and  _209
REMARK   86  A    between atoms: _209  and  _210
REMARK   87  A    between atoms: _209  and  _212
REMARK   88  A    between atoms: _212  and  _213
REMARK   89  A    between atoms: _216  and  _218
REMARK   90  A    between atoms: _218  and  _219
REMARK   91  A    between atoms: _221  and  _223
REMARK   92  A    between atoms: _223  and  _224
REMARK   93  A    between atoms: _223  and  _226
REMARK   94  A    between atoms: _226  and  _227
REMARK   95  A    between atoms: _227  and  _228
REMARK   96  A    between atoms: _228  and  _229
REMARK   97  A    between atoms: _238  and  _240
REMARK   98  A    between atoms: _240  and  _241
REMARK   99  A    between atoms: _240  and  _243
REMARK  100  A    between atoms: _243  and  _244
REMARK  101  A    between atoms: _244  and  _245
REMARK  102  A    between atoms: _245  and  _246
REMARK  103  A    between atoms: _255  and  _257
REMARK  104  A    between atoms: _257  and  _258
REMARK  105  A    between atoms: _257  and  _260
REMARK  106  A    between atoms: _260  and  _261
REMARK  107  A    between atoms: _264  and  _266
REMARK  108  A    between atoms: _266  and  _267
REMARK  109  A    between atoms: _266  and  _269
REMARK  110  A    between atoms: _269  and  _270
REMARK  111  A    between atoms: _273  and  _275
REMARK  112  A    between atoms: _275  and  _276
REMARK  113  A    between atoms: _275  and  _278
REMARK  114  A    between atoms: _278  and  _279
REMARK  115  A    between atoms: _282  and  _284
REMARK  116  A    between atoms: _284  and  _285
REMARK  117  A    between atoms: _284  and  _287
REMARK  118  A    between atoms: _287  and  _288
REMARK  119  A    between atoms: _291  and  _293
REMARK  120  A    between atoms: _293  and  _294
REMARK  121  A    between atoms: _296  and  _298
REMARK  122  A    between atoms: _298  and  _299
REMARK  123  A    between atoms: _302  and  _304
REMARK  124  A    between atoms: _304  and  _305
REMARK  125  A    between atoms: _304  and  _307
REMARK  126  A    between atoms: _307  and  _308
REMARK  127  A    between atoms: _311  and  _313
REMARK  128  A    between atoms: _313  and  _314
REMARK  129  A    between atoms: _313  and  _316
REMARK  130  A    between atoms: _316  and  _317
REMARK  131  A    between atoms: _320  and  _322
REMARK  132  A    between atoms: _322  and  _323
REMARK  133  A    between atoms: _322  and  _325
REMARK  134  A    between atoms: _325  and  _326
REMARK  135  A    between atoms: _329  and  _331
REMARK  136  A    between atoms: _331  and  _332
REMARK  137  A    between atoms: _331  and  _334
REMARK  138  A    between atoms: _337  and  _339
REMARK  139  A    between atoms: _339  and  _340
REMARK  140  A    between atoms: _339  and  _342
REMARK  141  A    between atoms: _342  and  _343
REMARK  142  A    between atoms: _343  and  _344
REMARK  143  A    between atoms: _344  and  _345
REMARK  144  A    between atoms: _345  and  _346
REMARK  145  A    between atoms: _350  and  _352
REMARK  146  A    between atoms: _352  and  _353
REMARK  147  A    between atoms: _352  and  _355
REMARK  148  A    between atoms: _355  and  _356
REMARK  149  A    between atoms: _356  and  _357
REMARK  150  A    between atoms: _359  and  _361
REMARK  151  A    between atoms: _361  and  _362
REMARK  152  A    between atoms: _361  and  _364
REMARK  153  A    between atoms: _364  and  _365
REMARK  154  A    between atoms: _368  and  _370
REMARK  155  A    between atoms: _370  and  _371
REMARK  156  A    between atoms: _373  and  _375
REMARK  157  A    between atoms: _375  and  _376
REMARK  158  A    between atoms: _378  and  _380
REMARK  159  A    between atoms: _380  and  _381
REMARK  160  A    between atoms: _380  and  _383
REMARK  161  A    between atoms: _383  and  _384
REMARK  162  A    between atoms: _387  and  _389
REMARK  163  A    between atoms: _389  and  _390
REMARK  164  A    between atoms: _392  and  _394
REMARK  165  A    between atoms: _394  and  _395
REMARK  166  A    between atoms: _397  and  _399
REMARK  167  A    between atoms: _399  and  _400
REMARK  168  A    between atoms: _399  and  _402
REMARK  169  A    between atoms: _402  and  _403
REMARK  170  A    between atoms: _409  and  _411
REMARK  171  A    between atoms: _411  and  _412
REMARK  172  A    between atoms: _411  and  _414
REMARK  173  A    between atoms: _414  and  _415
REMARK  174  A    between atoms: _418  and  _420
REMARK  175  A    between atoms: _420  and  _421
REMARK  176  A    between atoms: _420  and  _423
REMARK  177  A    between atoms: _426  and  _428
REMARK  178  A    between atoms: _428  and  _429
REMARK  179  A    between atoms: _428  and  _431
REMARK  180  A    between atoms: _431  and  _432
REMARK  181  A    between atoms: _436  and  _437
REMARK  182  A    between atoms: _442  and  _444
REMARK  183  A    between atoms: _444  and  _445
REMARK  184  A    between atoms: _444  and  _447
REMARK  185  A    between atoms: _447  and  _448
REMARK  186  A    between atoms: _452  and  _453
REMARK  187  A    between atoms: _458  and  _460
REMARK  188  A    between atoms: _460  and  _461
REMARK  189  A    between atoms: _460  and  _463
REMARK  190  A    between atoms: _466  and  _468
REMARK  191  A    between atoms: _468  and  _469
REMARK  192  A    between atoms: _468  and  _471
REMARK  193  A    between atoms: _471  and  _472
REMARK  194  A    between atoms: _477  and  _479
REMARK  195  A    between atoms: _479  and  _480
REMARK  196  A    between atoms: _479  and  _482
REMARK  197  A    between atoms: _482  and  _483
REMARK  198  A    between atoms: _486  and  _488
REMARK  199  A    between atoms: _488  and  _489
REMARK  200  A    between atoms: _488  and  _491
REMARK  201  A    between atoms: _491  and  _492
REMARK  202  A    between atoms: _495  and  _497
REMARK  203  A    between atoms: _497  and  _498
REMARK  204  A    between atoms: _500  and  _502
REMARK  205  A    between atoms: _502  and  _503
REMARK  206  A    between atoms: _502  and  _505
REMARK  207  A    between atoms: _505  and  _506
REMARK  208  A    between atoms: _506  and  _507
REMARK  209  A    between atoms: _507  and  _508
REMARK  210  A    between atoms: _517  and  _519
REMARK  211  A    between atoms: _519  and  _520
REMARK  212  A    between atoms: _519  and  _522
REMARK  213  A    between atoms: _522  and  _523
REMARK                            x       y       z     vdW  Elec       q    Type
REMARK                         _______ _______ _______ _____ _____    ______ ____
ROOT
ATOM      1  CA  LEU A   1       6.891  35.411  16.493  0.00  0.00    +0.133 C 
ENDROOT
BRANCH   1   2
ATOM      2  N   LEU A   1       6.606  34.599  17.662  0.00  0.00    -0.239 NA
ATOM      3  H   LEU A   1       7.308  33.888  17.950  0.00  0.00    +0.142 HD
ENDBRANCH   1   2
BRANCH   1   4
ATOM      4  C   LEU A   1       6.607  34.569  15.264  0.00  0.00    +0.224 C 
ATOM      5  O   LEU A   1       7.112  33.449  15.142  0.00  0.00    -0.287 OA
ENDBRANCH   1   4
BRANCH   1   6
ATOM      6  CB  LEU A   1       8.361  35.839  16.487  0.00  0.00    +0.025 C 
BRANCH   6   7
ATOM      7  CG  LEU A   1       8.890  36.502  17.760  0.00  0.00    +0.002 C 
ATOM      8  CD2 LEU A   1       8.043  37.689  18.139  0.00  0.00    +0.000 C 
ATOM      9  CD1 LEU A   1      10.339  36.912  17.575  0.00  0.00    +0.000 C 
ENDBRANCH   6   7
ENDBRANCH   1   6
TORSDOF 4
REMARK  Name = ../refined-set-2016/3gi5/3gi5_pocket.pdb
REMARK  213 active torsions:
REMARK  status: ('A' for Active; 'I' for Inactive)
REMARK    1  A    between atoms: _1  and  _3
REMARK    2  A    between atoms: _3  and  _4
REMARK    3  A    between atoms: _3  and  _6
REMARK    4  A    between atoms: _6  and  _7
REMARK    5  A    between atoms: _7  and  _8
REMARK    6  A    between atoms: _8  and  _9
REMARK    7  A    between atoms: _18  and  _20
REMARK    8  A    between atoms: _20  and  _21
REMARK    9  A    between atoms: _20  and  _23
REMARK   10  A    between atoms: _23  and  _24
REMARK   11  A    between atoms: _27  and  _29
REMARK   12  A    between atoms: _29  and  _30
REMARK   13  A    between atoms: _29  and  _32
REMARK   14  A    between atoms: _32  and  _33
REMARK   15  A    between atoms: _36  and  _38
REMARK   16  A    between atoms: _38  and  _39
REMARK   17  A    between atoms: _38  and  _41
REMARK   18  A    between atoms: _41  and  _42
REMARK   19  A    between atoms: _45  and  _47
REMARK   20  A    between atoms: _47  and  _48
REMARK   21  A    between atoms: _47  and  _50
REMARK   22  A    between atoms: _50  and  _51
REMARK   23  A    between atoms: _54  and  _56
REMARK   24  A    between atoms: _56  and  _57
REMARK   25  A    between atoms: _59  and  _61
REMARK   26  A    between atoms: _61  and  _62
REMARK   27  A    between atoms: _65  and  _67
REMARK   28  A    between atoms: _67  and  _68
REMARK   29  A    between atoms: _67  and  _70
REMARK   30  A    between atoms: _70  and  _71
REMARK   31  A    between atoms: _74  and  _76
REMARK   32  A    between atoms: _76  and  _77
REMARK   33  A    between atoms: _76  and  _79
REMARK   34  A    between atoms: _79  and  _80
REMARK   35  A    between atoms: _83  and  _85
REMARK   36  A    between atoms: _85  and  _86
REMARK   37  A    between atoms: _85  and  _88
REMARK   38  A    between atoms: _88  and  _89
REMARK   39  A    between atoms: _92  and  _94
REMARK   40  A    between atoms: _94  and  _95
REMARK   41  A    between atoms: _94  and  _97
REMARK   42  A    between atoms: _100  and  _102
REMARK   43  A    between atoms: _102  and  _103
REMARK   44  A    between atoms: _102  and  _105
REMARK   45  A    between atoms: _105  and  _106
REMARK   46  A    between atoms: _106  and  _107
REMARK   47  A    between atoms: _107  and  _108
REMARK   48  A    between atoms: _108  and  _109
REMARK   49  A    between atoms: _113  and  _115
REMARK   50  A    between atoms: _115  and  _116
REMARK   51  A    between atoms: _115  and  _118
REMARK   52  A    between atoms: _118  and  _119
REMARK   53  A    between atoms: _122  and  _124
REMARK   54  A    between atoms: _124  and  _125
REMARK   55  A    between atoms: _127  and  _129
REMARK   56  A    between atoms: _129  and  _130
REMARK   57  A    between atoms: _132  and  _134
REMARK   58  A    between atoms: _134  and  _135
REMARK   59  A    between atoms: _134  and  _137
REMARK   60  A    between atoms: _137  and  _138
REMARK   61  A    between atoms: _141  and  _143
REMARK   62  A    between atoms: _143  and  _144
REMARK   63  A    between atoms: _146  and  _148
REMARK   64  A    between atoms: _148  and  _149
REMARK   65  A    between atoms: _151  and  _153
REMARK   66  A    between atoms: _153  and  _154
REMARK   67  A    between atoms: _153  and  _156
REMARK   68  A    between atoms: _156  and  _157
REMARK   69  A    between atoms: _163  and  _165
REMARK   70  A    between atoms: _165  and  _166
REMARK   71  A    between atoms: _165  and  _168
REMARK   72  A    between atoms: _168  and  _169
REMARK   73  A    between atoms: _173  and  _174
REMARK   74  A    between atoms: _179  and  _181
REMARK   75  A    between atoms: _181  and  _182
REMARK   76  A    between atoms: _181  and  _184
REMARK   77  A    between atoms: _187  and  _189
REMARK   78  A    between atoms: _189  and  _190
REMARK   79  A    between atoms: _189  and  _192
REMARK   80  A    between atoms: _192  and  _193
REMARK   81  A    between atoms: _198  and  _200
REMARK   82  A    between atoms: _200  and  _201
REMARK   83  A    between atoms: _200  and  _203
REMARK   84  A    between atoms: _203  and  _204
REMARK   85  A    between atoms: _207  and  _209
REMARK   86  A    between atoms: _209  and  _210
REMARK   87  A    between atoms: _209  and  _212
REMARK   88  A    between atoms: _212  and  _213
REMARK   89  A    between atoms: _216  and  _218
REMARK   90  A    between atoms: _218  and  _219
REMARK   91  A    between atoms: _221  and  _223
REMARK   92  A    between atoms: _223  and  _224
REMARK   93  A    between atoms: _223  and  _226
REMARK   94  A    between atoms: _226  and  _227
REMARK   95  A    between atoms: _227  and  _228
REMARK   96  A    between atoms: _228  and  _229
REMARK   97  A    between atoms: _238  and  _240
REMARK   98  A    between atoms: _240  and  _241
REMARK   99  A    between atoms: _240  and  _243
REMARK  100  A    between atoms: _243  and  _244
REMARK  101  A    between atoms: _244  and  _245
REMARK  102  A    between atoms: _245  and  _246
REMARK  103  A    between atoms: _255  and  _257
REMARK  104  A    between atoms: _257  and  _258
REMARK  105  A    between atoms: _257  and  _260
REMARK  106  A    between atoms: _260  and  _261
REMARK  107  A    between atoms: _264  and  _266
REMARK  108  A    between atoms: _266  and  _267
REMARK  109  A    between atoms: _266  and  _269
REMARK  110  A    between atoms: _269  and  _270
REMARK  111  A    between atoms: _273  and  _275
REMARK  112  A    between atoms: _275  and  _276
REMARK  113  A    between atoms: _275  and  _278
REMARK  114  A    between atoms: _278  and  _279
REMARK  115  A    between atoms: _282  and  _284
REMARK  116  A    between atoms: _284  and  _285
REMARK  117  A    between atoms: _284  and  _287
REMARK  118  A    between atoms: _287  and  _288
REMARK  119  A    between atoms: _291  and  _293
REMARK  120  A    between atoms: _293  and  _294
REMARK  121  A    between atoms: _296  and  _298
REMARK  122  A    between atoms: _298  and  _299
REMARK  123  A    between atoms: _302  and  _304
REMARK  124  A    between atoms: _304  and  _305
REMARK  125  A    between atoms: _304  and  _307
REMARK  126  A    between atoms: _307  and  _308
REMARK  127  A    between atoms: _311  and  _313
REMARK  128  A    between atoms: _313  and  _314
REMARK  129  A    between atoms: _313  and  _316
REMARK  130  A    between atoms: _316  and  _317
REMARK  131  A    between atoms: _320  and  _322
REMARK  132  A    between atoms: _322  and  _323
REMARK  133  A    between atoms: _322  and  _325
REMARK  134  A    between atoms: _325  and  _326
REMARK  135  A    between atoms: _329  and  _331
REMARK  136  A    between atoms: _331  and  _332
REMARK  137  A    between atoms: _331  and  _334
REMARK  138  A    between atoms: _337  and  _339
REMARK  139  A    between atoms: _339  and  _340
REMARK  140  A    between atoms: _339  and  _342
REMARK  141  A    between atoms: _342  and  _343
REMARK  142  A    between atoms: _343  and  _344
REMARK  143  A    between atoms: _344  and  _345
REMARK  144  A    between atoms: _345  and  _346
REMARK  145  A    between atoms: _350  and  _352
REMARK  146  A    between atoms: _352  and  _353
REMARK  147  A    between atoms: _352  and  _355
REMARK  148  A    between atoms: _355  and  _356
REMARK  149  A    between atoms: _356  and  _357
REMARK  150  A    between atoms: _359  and  _361
REMARK  151  A    between atoms: _361  and  _362
REMARK  152  A    between atoms: _361  and  _364
REMARK  153  A    between atoms: _364  and  _365
REMARK  154  A    between atoms: _368  and  _370
REMARK  155  A    between atoms: _370  and  _371
REMARK  156  A    between atoms: _373  and  _375
REMARK  157  A    between atoms: _375  and  _376
REMARK  158  A    between atoms: _378  and  _380
REMARK  159  A    between atoms: _380  and  _381
REMARK  160  A    between atoms: _380  and  _383
REMARK  161  A    between atoms: _383  and  _384
REMARK  162  A    between atoms: _387  and  _389
REMARK  163  A    between atoms: _389  and  _390
REMARK  164  A    between atoms: _392  and  _394
REMARK  165  A    between atoms: _394  and  _395
REMARK  166  A    between atoms: _397  and  _399
REMARK  167  A    between atoms: _399  and  _400
REMARK  168  A    between atoms: _399  and  _402
REMARK  169  A    between atoms: _402  and  _403
REMARK  170  A    between atoms: _409  and  _411
REMARK  171  A    between atoms: _411  and  _412
REMARK  172  A    between atoms: _411  and  _414
REMARK  173  A    between atoms: _414  and  _415
REMARK  174  A    between atoms: _418  and  _420
REMARK  175  A    between atoms: _420  and  _421
REMARK  176  A    between atoms: _420  and  _423
REMARK  177  A    between atoms: _426  and  _428
REMARK  178  A    between atoms: _428  and  _429
REMARK  179  A    between atoms: _428  and  _431
REMARK  180  A    between atoms: _431  and  _432
REMARK  181  A    between atoms: _436  and  _437
REMARK  182  A    between atoms: _442  and  _444
REMARK  183  A    between atoms: _444  and  _445
REMARK  184  A    between atoms: _444  and  _447
REMARK  185  A    between atoms: _447  and  _448
REMARK  186  A    between atoms: _452  and  _453
REMARK  187  A    between atoms: _458  and  _460
REMARK  188  A    between atoms: _460  and  _461
REMARK  189  A    between atoms: _460  and  _463
REMARK  190  A    between atoms: _466  and  _468
REMARK  191  A    between atoms: _468  and  _469
REMARK  192  A    between atoms: _468  and  _471
REMARK  193  A    between atoms: _471  and  _472
REMARK  194  A    between atoms: _477  and  _479
REMARK  195  A    between atoms: _479  and  _480
REMARK  196  A    between atoms: _479  and  _482
REMARK  197  A    between atoms: _482  and  _483
REMARK  198  A    between atoms: _486  and  _488
REMARK  199  A    between atoms: _488  and  _489
REMARK  200  A    between atoms: _488  and  _491
REMARK  201  A    between atoms: _491  and  _492
REMARK  202  A    between atoms: _495  and  _497
REMARK  203  A    between atoms: _497  and  _498
REMARK  204  A    between atoms: _500  and  _502
REMARK  205  A    between atoms: _502  and  _503
REMARK  206  A    between atoms: _502  and  _505
REMARK  207  A    between atoms: _505  and  _506
REMARK  208  A    between atoms: _506  and  _507
REMARK  209  A    between atoms: _507  and  _508
REMARK  210  A    between atoms: _517  and  _519
REMARK  211  A    between atoms: _519  and  _520
REMARK  212  A    between atoms: _519  and  _522
REMARK  213  A    between atoms: _522  and  _523
REMARK                            x       y       z     vdW  Elec       q    Type
REMARK                         _______ _______ _______ _____ _____    ______ ____
ROOT
ATOM      1  CA  ILE A   6      12.028  27.438  16.501  0.00  0.00    +0.149 C 
ENDROOT
BRANCH   1   3
ATOM      2  C   ASN A   5      10.882  26.174  14.728  0.00  0.00    +0.241 C 
ATOM      3  N   ILE A   6      10.973  27.257  15.498  0.00  0.00    -0.297 N 
ATOM      4  H   ILE A   6      10.264  28.009  15.383  0.00  0.00    +0.150 HD
ATOM      5  O   ASN A   5      11.579  25.171  14.871  0.00  0.00    -0.273 OA
BRANCH   2   6
ATOM      6  CA  ASN A   5       9.843  26.229  13.616  0.00  0.00    +0.158 C 
BRANCH   6   8
ATOM      7  C   VAL A   4      11.280  26.546  11.684  0.00  0.00    +0.241 C 
ATOM      8  N   ASN A   5      10.480  25.755  12.390  0.00  0.00    -0.297 N 
ATOM      9  H   ASN A   5      10.304  24.783  12.065  0.00  0.00    +0.150 HD
ATOM     10  O   VAL A   4      11.449  27.747  11.956  0.00  0.00    -0.273 OA
BRANCH   7  11
ATOM     11  CA  VAL A   4      11.992  25.905  10.505  0.00  0.00    +0.149 C 
BRANCH  11  13
ATOM     12  C   PRO A   3      11.998  26.550   8.160  0.00  0.00    +0.241 C 
ATOM     13  N   VAL A   4      12.188  26.868   9.433  0.00  0.00    -0.297 N 
ATOM     14  H   VAL A   4      12.486  27.835   9.672  0.00  0.00    +0.150 HD
ATOM     15  O   PRO A   3      11.577  25.458   7.794  0.00  0.00    -0.273 OA
BRANCH  12  22
ATOM     16  C   THR A   2      11.260  29.609   8.075  0.00  0.00    +0.246 C 
ATOM     17  O   THR A   2      10.137  29.143   7.888  0.00  0.00    -0.273 OA
ATOM     18  N   PRO A   3      12.384  28.967   7.697  0.00  0.00    -0.272 N 
ATOM     19  CD  PRO A   3      13.763  29.483   7.753  0.00  0.00    +0.094 C 
ATOM     20  CG  PRO A   3      14.604  28.285   7.410  0.00  0.00    +0.024 C 
ATOM     21  CB  PRO A   3      13.758  27.393   6.608  0.00  0.00    +0.031 C 
ATOM     22  CA  PRO A   3      12.333  27.617   7.132  0.00  0.00    +0.152 C 
BRANCH  16  23
ATOM     23  CA  THR A   2      11.414  30.979   8.748  0.00  0.00    +0.176 C 
BRANCH  23  25
ATOM     24  C   PRO A   1      10.433  32.732   7.350  0.00  0.00    +0.239 C 
ATOM     25  N   THR A   2      10.319  31.838   8.328  0.00  0.00    -0.295 N 
ATOM     26  H   THR A   2       9.404  31.749   8.815  0.00  0.00    +0.150 HD
ATOM     27  O   PRO A   1      11.498  32.991   6.776  0.00  0.00    -0.274 OA
BRANCH  24  32
ATOM     28  N   PRO A   1       8.600  34.281   8.003  0.00  0.00    -0.210 NA
ATOM     29  CD  PRO A   1       8.905  35.701   7.742  0.00  0.00    +0.089 C 
ATOM     30  CG  PRO A   1       9.578  35.687   6.396  0.00  0.00    +0.021 C 
ATOM     31  CB  PRO A   1       9.265  34.381   5.771  0.00  0.00    +0.028 C 
ATOM     32  CA  PRO A   1       9.118  33.420   6.956  0.00  0.00    +0.149 C 
ENDBRANCH  24  32
ENDBRANCH  23  25
BRANCH  23  33
ATOM     33  CB  THR A   2      11.459  30.818  10.288  0.00  0.00    +0.137 C 
ATOM     34  CG2 THR A   2      10.119  30.353  10.864  0.00  0.00    +0.034 C 
BRANCH  33  35
ATOM     35  OG1 THR A   2      12.469  29.870  10.642  0.00  0.00    -0.382 OA
ATOM     36  HG1 THR A   2      12.261  28.996  10.225  0.00  0.00    +0.210 HD
ENDBRANCH  33  35
ENDBRANCH  23  33
ENDBRANCH  16  23
ENDBRANCH  12  22
ENDBRANCH  11  13
BRANCH  11  37
ATOM     37  CB  VAL A   4      13.346  25.309  10.951  0.00  0.00    +0.027 C 
ATOM     38  CG2 VAL A   4      14.269  26.383  11.490  0.00  0.00    +0.002 C 
ATOM     39  CG1 VAL A   4      14.010  24.575   9.792  0.00  0.00    +0.002 C 
ENDBRANCH  11  37
ENDBRANCH   7  11
ENDBRANCH   6   8
BRANCH   6  40
ATOM     40  CB  ASN A   5       8.621  25.381  13.975  0.00  0.00    +0.114 C 
BRANCH  40  41
ATOM     41  CG  ASN A   5       7.502  25.515  12.952  0.00  0.00    +0.222 C 
ATOM     42  OD1 ASN A   5       7.057  26.622  12.657  0.00  0.00    -0.275 OA
ATOM     43  ND2 ASN A   5       7.042  24.389  12.414  0.00  0.00    -0.329 N 
ATOM     44 HD21 ASN A   5       7.450  23.474  12.694  0.00  0.00    +0.145 HD
ATOM     45 HD22 ASN A   5       6.275  24.423  11.713  0.00  0.00    +0.145 HD
ENDBRANCH  40  41
ENDBRANCH   6  40
ENDBRANCH   2   6
ENDBRANCH   1   3
BRANCH   1  46
ATOM     46  C   ILE A   6      11.392  27.710  17.853  0.00  0.00    +0.241 C 
ATOM     47  N   ILE A   7      11.581  26.785  18.791  0.00  0.00    -0.297 N 
ATOM     48  H   ILE A   7      12.012  25.878  18.522  0.00  0.00    +0.150 HD
ATOM     49  O   ILE A   6      10.730  28.738  18.034  0.00  0.00    -0.273 OA
BRANCH  47  50
ATOM     50  CA  ILE A   7      11.205  27.000  20.181  0.00  0.00    +0.149 C 
BRANCH  50  51
ATOM     51  C   ILE A   7      12.365  27.647  20.911  0.00  0.00    +0.241 C 
ATOM     52  N   GLY A   8      12.164  28.916  21.261  0.00  0.00    -0.295 N 
ATOM     53  H   GLY A   8      11.240  29.351  21.062  0.00  0.00    +0.150 HD
ATOM     54  O   ILE A   7      13.420  27.015  21.144  0.00  0.00    -0.273 OA
BRANCH  52  55
ATOM     55  CA  GLY A   8      13.190  29.716  21.912  0.00  0.00    +0.176 C 
BRANCH  55  56
ATOM     56  C   GLY A   8      13.125  29.652  23.424  0.00  0.00    +0.243 C 
ATOM     57  N   ARG A   9      14.095  30.307  24.057  0.00  0.00    -0.297 N 
ATOM     58  H   ARG A   9      14.755  30.886  23.499  0.00  0.00    +0.150 HD
ATOM     59  O   GLY A   8      12.196  29.063  24.006  0.00  0.00    -0.273 OA
BRANCH  57  60
ATOM     60  CA  ARG A   9      14.267  30.243  25.510  0.00  0.00    +0.149 C 
BRANCH  60  61
ATOM     61  C   ARG A   9      13.043  30.714  26.292  0.00  0.00    +0.241 C 
ATOM     62  O   ARG A   9      12.795  30.234  27.402  0.00  0.00    -0.273 OA
ATOM     63  N   ASN A  10      12.285  31.655  25.738  0.00  0.00    -0.298 N 
ATOM     64  H   ASN A  10      12.551  32.064  24.820  0.00  0.00    +0.150 HD
BRANCH  63  65
ATOM     65  CA  ASN A  10      11.073  32.115  26.424  0.00  0.00    +0.146 C 
BRANCH  65  66
ATOM     66  C   ASN A  10      10.114  30.975  26.784  0.00  0.00    +0.227 C 
ATOM     67  O   ASN A  10       9.459  31.027  27.818  0.00  0.00    -0.286 OA
ENDBRANCH  65  66
BRANCH  65  68
ATOM     68  CB  ASN A  10      10.348  33.203  25.619  0.00  0.00    +0.112 C 
BRANCH  68  69
ATOM     69  CG  ASN A  10       9.709  32.677  24.352  0.00  0.00    +0.222 C 
ATOM     70  ND2 ASN A  10       8.415  32.938  24.197  0.00  0.00    -0.329 N 
ATOM     71 HD21 ASN A  10       7.897  33.456  24.935  0.00  0.00    +0.145 HD
ATOM     72 HD22 ASN A  10       7.921  32.624  23.338  0.00  0.00    +0.145 HD
ATOM     73  OD1 ASN A  10      10.372  32.066  23.508  0.00  0.00    -0.275 OA
ENDBRANCH  68  69
ENDBRANCH  65  68
ENDBRANCH  63  65
ENDBRANCH  60  61
BRANCH  60  74
ATOM     74  CB  ARG A   9      15.487  31.056  25.933  0.00  0.00    +0.033 C 
BRANCH  74  75
ATOM     75  CG  ARG A   9      16.804  30.460  25.475  0.00  0.00    +0.045 C 
BRANCH  75  76
ATOM     76  CD  ARG A   9      18.028  31.222  26.018  0.00  0.00    +0.174 C 
BRANCH  76  77
ATOM     77  NE  ARG A   9      18.076  32.635  25.611  0.00  0.00    -0.265 N 
ATOM     78  CZ  ARG A   9      17.670  33.674  26.348  0.00  0.00    +0.342 C 
ATOM     79  NH2 ARG A   9      17.156  33.513  27.558  0.00  0.00    -0.292 N 
ATOM     80 HH21 ARG A   9      16.849  34.341  28.107  0.00  0.00    +0.255 HD
ATOM     81 HH22 ARG A   9      17.059  32.558  27.959  0.00  0.00    +0.255 HD
ATOM     82  NH1 ARG A   9      17.768  34.905  25.859  0.00  0.00    -0.292 N 
ATOM     83 HH11 ARG A   9      17.454  35.717  26.428  0.00  0.00    +0.255 HD
ATOM     84 HH12 ARG A   9      18.159  35.057  24.907  0.00  0.00    +0.255 HD
ATOM     85  HE  ARG A   9      18.459  32.844  24.667  0.00  0.00    +0.259 HD
ENDBRANCH  76  77
ENDBRANCH  75  76
ENDBRANCH  74  75
ENDBRANCH  60  74
ENDBRANCH  57  60
ENDBRANCH  55  56
ENDBRANCH  52  55
ENDBRANCH  50  51
BRANCH  50  86
ATOM     86  CB  ILE A   7      10.797  25.697  20.873  0.00  0.00    +0.027 C 
ATOM     87  CG2 ILE A   7      10.374  25.971  22.310  0.00  0.00    +0.002 C 
BRANCH  86  88
ATOM     88  CG1 ILE A   7       9.688  25.000  20.071  0.00  0.00    +0.002 C 
ATOM     89  CD1 ILE A   7       8.454  25.841  19.840  0.00  0.00    +0.000 C 
ENDBRANCH  86  88
ENDBRANCH  50  86
ENDBRANCH  47  50
ENDBRANCH   1  46
BRANCH   1  90
ATOM     90  CB  ILE A   6      12.946  28.620  16.109  0.00  0.00    +0.027 C 
ATOM     91  CG2 ILE A   6      13.949  28.960  17.222  0.00  0.00    +0.002 C 
BRANCH  90  92
ATOM     92  CG1 ILE A   6      13.687  28.299  14.809  0.00  0.00    +0.002 C 
ATOM     93  CD1 ILE A   6      14.298  29.493  14.149  0.00  0.00    +0.000 C 
ENDBRANCH  90  92
ENDBRANCH   1  90
TORSDOF 33
REMARK  Name = ../refined-set-2016/3gi5/3gi5_pocket.pdb
REMARK  213 active torsions:
REMARK  status: ('A' for Active; 'I' for Inactive)
REMARK    1  A    between atoms: _1  and  _3
REMARK    2  A    between atoms: _3  and  _4
REMARK    3  A    between atoms: _3  and  _6
REMARK    4  A    between atoms: _6  and  _7
REMARK    5  A    between atoms: _7  and  _8
REMARK    6  A    between atoms: _8  and  _9
REMARK    7  A    between atoms: _18  and  _20
REMARK    8  A    between atoms: _20  and  _21
REMARK    9  A    between atoms: _20  and  _23
REMARK   10  A    between atoms: _23  and  _24
REMARK   11  A    between atoms: _27  and  _29
REMARK   12  A    between atoms: _29  and  _30
REMARK   13  A    between atoms: _29  and  _32
REMARK   14  A    between atoms: _32  and  _33
REMARK   15  A    between atoms: _36  and  _38
REMARK   16  A    between atoms: _38  and  _39
REMARK   17  A    between atoms: _38  and  _41
REMARK   18  A    between atoms: _41  and  _42
REMARK   19  A    between atoms: _45  and  _47
REMARK   20  A    between atoms: _47  and  _48
REMARK   21  A    between atoms: _47  and  _50
REMARK   22  A    between atoms: _50  and  _51
REMARK   23  A    between atoms: _54  and  _56
REMARK   24  A    between atoms: _56  and  _57
REMARK   25  A    between atoms: _59  and  _61
REMARK   26  A    between atoms: _61  and  _62
REMARK   27  A    between atoms: _65  and  _67
REMARK   28  A    between atoms: _67  and  _68
REMARK   29  A    between atoms: _67  and  _70
REMARK   30  A    between atoms: _70  and  _71
REMARK   31  A    between atoms: _74  and  _76
REMARK   32  A    between atoms: _76  and  _77
REMARK   33  A    between atoms: _76  and  _79
REMARK   34  A    between atoms: _79  and  _80
REMARK   35  A    between atoms: _83  and  _85
REMARK   36  A    between atoms: _85  and  _86
REMARK   37  A    between atoms: _85  and  _88
REMARK   38  A    between atoms: _88  and  _89
REMARK   39  A    between atoms: _92  and  _94
REMARK   40  A    between atoms: _94  and  _95
REMARK   41  A    between atoms: _94  and  _97
REMARK   42  A    between atoms: _100  and  _102
REMARK   43  A    between atoms: _102  and  _103
REMARK   44  A    between atoms: _102  and  _105
REMARK   45  A    between atoms: _105  and  _106
REMARK   46  A    between atoms: _106  and  _107
REMARK   47  A    between atoms: _107  and  _108
REMARK   48  A    between atoms: _108  and  _109
REMARK   49  A    between atoms: _113  and  _115
REMARK   50  A    between atoms: _115  and  _116
REMARK   51  A    between atoms: _115  and  _118
REMARK   52  A    between atoms: _118  and  _119
REMARK   53  A    between atoms: _122  and  _124
REMARK   54  A    between atoms: _124  and  _125
REMARK   55  A    between atoms: _127  and  _129
REMARK   56  A    between atoms: _129  and  _130
REMARK   57  A    between atoms: _132  and  _134
REMARK   58  A    between atoms: _134  and  _135
REMARK   59  A    between atoms: _134  and  _137
REMARK   60  A    between atoms: _137  and  _138
REMARK   61  A    between atoms: _141  and  _143
REMARK   62  A    between atoms: _143  and  _144
REMARK   63  A    between atoms: _146  and  _148
REMARK   64  A    between atoms: _148  and  _149
REMARK   65  A    between atoms: _151  and  _153
REMARK   66  A    between atoms: _153  and  _154
REMARK   67  A    between atoms: _153  and  _156
REMARK   68  A    between atoms: _156  and  _157
REMARK   69  A    between atoms: _163  and  _165
REMARK   70  A    between atoms: _165  and  _166
REMARK   71  A    between atoms: _165  and  _168
REMARK   72  A    between atoms: _168  and  _169
REMARK   73  A    between atoms: _173  and  _174
REMARK   74  A    between atoms: _179  and  _181
REMARK   75  A    between atoms: _181  and  _182
REMARK   76  A    between atoms: _181  and  _184
REMARK   77  A    between atoms: _187  and  _189
REMARK   78  A    between atoms: _189  and  _190
REMARK   79  A    between atoms: _189  and  _192
REMARK   80  A    between atoms: _192  and  _193
REMARK   81  A    between atoms: _198  and  _200
REMARK   82  A    between atoms: _200  and  _201
REMARK   83  A    between atoms: _200  and  _203
REMARK   84  A    between atoms: _203  and  _204
REMARK   85  A    between atoms: _207  and  _209
REMARK   86  A    between atoms: _209  and  _210
REMARK   87  A    between atoms: _209  and  _212
REMARK   88  A    between atoms: _212  and  _213
REMARK   89  A    between atoms: _216  and  _218
REMARK   90  A    between atoms: _218  and  _219
REMARK   91  A    between atoms: _221  and  _223
REMARK   92  A    between atoms: _223  and  _224
REMARK   93  A    between atoms: _223  and  _226
REMARK   94  A    between atoms: _226  and  _227
REMARK   95  A    between atoms: _227  and  _228
REMARK   96  A    between atoms: _228  and  _229
REMARK   97  A    between atoms: _238  and  _240
REMARK   98  A    between atoms: _240  and  _241
REMARK   99  A    between atoms: _240  and  _243
REMARK  100  A    between atoms: _243  and  _244
REMARK  101  A    between atoms: _244  and  _245
REMARK  102  A    between atoms: _245  and  _246
REMARK  103  A    between atoms: _255  and  _257
REMARK  104  A    between atoms: _257  and  _258
REMARK  105  A    between atoms: _257  and  _260
REMARK  106  A    between atoms: _260  and  _261
REMARK  107  A    between atoms: _264  and  _266
REMARK  108  A    between atoms: _266  and  _267
REMARK  109  A    between atoms: _266  and  _269
REMARK  110  A    between atoms: _269  and  _270
REMARK  111  A    between atoms: _273  and  _275
REMARK  112  A    between atoms: _275  and  _276
REMARK  113  A    between atoms: _275  and  _278
REMARK  114  A    between atoms: _278  and  _279
REMARK  115  A    between atoms: _282  and  _284
REMARK  116  A    between atoms: _284  and  _285
REMARK  117  A    between atoms: _284  and  _287
REMARK  118  A    between atoms: _287  and  _288
REMARK  119  A    between atoms: _291  and  _293
REMARK  120  A    between atoms: _293  and  _294
REMARK  121  A    between atoms: _296  and  _298
REMARK  122  A    between atoms: _298  and  _299
REMARK  123  A    between atoms: _302  and  _304
REMARK  124  A    between atoms: _304  and  _305
REMARK  125  A    between atoms: _304  and  _307
REMARK  126  A    between atoms: _307  and  _308
REMARK  127  A    between atoms: _311  and  _313
REMARK  128  A    between atoms: _313  and  _314
REMARK  129  A    between atoms: _313  and  _316
REMARK  130  A    between atoms: _316  and  _317
REMARK  131  A    between atoms: _320  and  _322
REMARK  132  A    between atoms: _322  and  _323
REMARK  133  A    between atoms: _322  and  _325
REMARK  134  A    between atoms: _325  and  _326
REMARK  135  A    between atoms: _329  and  _331
REMARK  136  A    between atoms: _331  and  _332
REMARK  137  A    between atoms: _331  and  _334
REMARK  138  A    between atoms: _337  and  _339
REMARK  139  A    between atoms: _339  and  _340
REMARK  140  A    between atoms: _339  and  _342
REMARK  141  A    between atoms: _342  and  _343
REMARK  142  A    between atoms: _343  and  _344
REMARK  143  A    between atoms: _344  and  _345
REMARK  144  A    between atoms: _345  and  _346
REMARK  145  A    between atoms: _350  and  _352
REMARK  146  A    between atoms: _352  and  _353
REMARK  147  A    between atoms: _352  and  _355
REMARK  148  A    between atoms: _355  and  _356
REMARK  149  A    between atoms: _356  and  _357
REMARK  150  A    between atoms: _359  and  _361
REMARK  151  A    between atoms: _361  and  _362
REMARK  152  A    between atoms: _361  and  _364
REMARK  153  A    between atoms: _364  and  _365
REMARK  154  A    between atoms: _368  and  _370
REMARK  155  A    between atoms: _370  and  _371
REMARK  156  A    between atoms: _373  and  _375
REMARK  157  A    between atoms: _375  and  _376
REMARK  158  A    between atoms: _378  and  _380
REMARK  159  A    between atoms: _380  and  _381
REMARK  160  A    between atoms: _380  and  _383
REMARK  161  A    between atoms: _383  and  _384
REMARK  162  A    between atoms: _387  and  _389
REMARK  163  A    between atoms: _389  and  _390
REMARK  164  A    between atoms: _392  and  _394
REMARK  165  A    between atoms: _394  and  _395
REMARK  166  A    between atoms: _397  and  _399
REMARK  167  A    between atoms: _399  and  _400
REMARK  168  A    between atoms: _399  and  _402
REMARK  169  A    between atoms: _402  and  _403
REMARK  170  A    between atoms: _409  and  _411
REMARK  171  A    between atoms: _411  and  _412
REMARK  172  A    between atoms: _411  and  _414
REMARK  173  A    between atoms: _414  and  _415
REMARK  174  A    between atoms: _418  and  _420
REMARK  175  A    between atoms: _420  and  _421
REMARK  176  A    between atoms: _420  and  _423
REMARK  177  A    between atoms: _426  and  _428
REMARK  178  A    between atoms: _428  and  _429
REMARK  179  A    between atoms: _428  and  _431
REMARK  180  A    between atoms: _431  and  _432
REMARK  181  A    between atoms: _436  and  _437
REMARK  182  A    between atoms: _442  and  _444
REMARK  183  A    between atoms: _444  and  _445
REMARK  184  A    between atoms: _444  and  _447
REMARK  185  A    between atoms: _447  and  _448
REMARK  186  A    between atoms: _452  and  _453
REMARK  187  A    between atoms: _458  and  _460
REMARK  188  A    between atoms: _460  and  _461
REMARK  189  A    between atoms: _460  and  _463
REMARK  190  A    between atoms: _466  and  _468
REMARK  191  A    between atoms: _468  and  _469
REMARK  192  A    between atoms: _468  and  _471
REMARK  193  A    between atoms: _471  and  _472
REMARK  194  A    between atoms: _477  and  _479
REMARK  195  A    between atoms: _479  and  _480
REMARK  196  A    between atoms: _479  and  _482
REMARK  197  A    between atoms: _482  and  _483
REMARK  198  A    between atoms: _486  and  _488
REMARK  199  A    between atoms: _488  and  _489
REMARK  200  A    between atoms: _488  and  _491
REMARK  201  A    between atoms: _491  and  _492
REMARK  202  A    between atoms: _495  and  _497
REMARK  203  A    between atoms: _497  and  _498
REMARK  204  A    between atoms: _500  and  _502
REMARK  205  A    between atoms: _502  and  _503
REMARK  206  A    between atoms: _502  and  _505
REMARK  207  A    between atoms: _505  and  _506
REMARK  208  A    between atoms: _506  and  _507
REMARK  209  A    between atoms: _507  and  _508
REMARK  210  A    between atoms: _517  and  _519
REMARK  211  A    between atoms: _519  and  _520
REMARK  212  A    between atoms: _519  and  _522
REMARK  213  A    between atoms: _522  and  _523
REMARK                            x       y       z     vdW  Elec       q    Type
REMARK                         _______ _______ _______ _____ _____    ______ ____
ROOT
ATOM      1  O   HOH     1      19.449  23.098  12.956  0.00  0.00    +0.000 OA
ENDROOT
TORSDOF 0
REMARK  Name = ../refined-set-2016/3gi5/3gi5_pocket.pdb
REMARK  213 active torsions:
REMARK  status: ('A' for Active; 'I' for Inactive)
REMARK    1  A    between atoms: _1  and  _3
REMARK    2  A    between atoms: _3  and  _4
REMARK    3  A    between atoms: _3  and  _6
REMARK    4  A    between atoms: _6  and  _7
REMARK    5  A    between atoms: _7  and  _8
REMARK    6  A    between atoms: _8  and  _9
REMARK    7  A    between atoms: _18  and  _20
REMARK    8  A    between atoms: _20  and  _21
REMARK    9  A    between atoms: _20  and  _23
REMARK   10  A    between atoms: _23  and  _24
REMARK   11  A    between atoms: _27  and  _29
REMARK   12  A    between atoms: _29  and  _30
REMARK   13  A    between atoms: _29  and  _32
REMARK   14  A    between atoms: _32  and  _33
REMARK   15  A    between atoms: _36  and  _38
REMARK   16  A    between atoms: _38  and  _39
REMARK   17  A    between atoms: _38  and  _41
REMARK   18  A    between atoms: _41  and  _42
REMARK   19  A    between atoms: _45  and  _47
REMARK   20  A    between atoms: _47  and  _48
REMARK   21  A    between atoms: _47  and  _50
REMARK   22  A    between atoms: _50  and  _51
REMARK   23  A    between atoms: _54  and  _56
REMARK   24  A    between atoms: _56  and  _57
REMARK   25  A    between atoms: _59  and  _61
REMARK   26  A    between atoms: _61  and  _62
REMARK   27  A    between atoms: _65  and  _67
REMARK   28  A    between atoms: _67  and  _68
REMARK   29  A    between atoms: _67  and  _70
REMARK   30  A    between atoms: _70  and  _71
REMARK   31  A    between atoms: _74  and  _76
REMARK   32  A    between atoms: _76  and  _77
REMARK   33  A    between atoms: _76  and  _79
REMARK   34  A    between atoms: _79  and  _80
REMARK   35  A    between atoms: _83  and  _85
REMARK   36  A    between atoms: _85  and  _86
REMARK   37  A    between atoms: _85  and  _88
REMARK   38  A    between atoms: _88  and  _89
REMARK   39  A    between atoms: _92  and  _94
REMARK   40  A    between atoms: _94  and  _95
REMARK   41  A    between atoms: _94  and  _97
REMARK   42  A    between atoms: _100  and  _102
REMARK   43  A    between atoms: _102  and  _103
REMARK   44  A    between atoms: _102  and  _105
REMARK   45  A    between atoms: _105  and  _106
REMARK   46  A    between atoms: _106  and  _107
REMARK   47  A    between atoms: _107  and  _108
REMARK   48  A    between atoms: _108  and  _109
REMARK   49  A    between atoms: _113  and  _115
REMARK   50  A    between atoms: _115  and  _116
REMARK   51  A    between atoms: _115  and  _118
REMARK   52  A    between atoms: _118  and  _119
REMARK   53  A    between atoms: _122  and  _124
REMARK   54  A    between atoms: _124  and  _125
REMARK   55  A    between atoms: _127  and  _129
REMARK   56  A    between atoms: _129  and  _130
REMARK   57  A    between atoms: _132  and  _134
REMARK   58  A    between atoms: _134  and  _135
REMARK   59  A    between atoms: _134  and  _137
REMARK   60  A    between atoms: _137  and  _138
REMARK   61  A    between atoms: _141  and  _143
REMARK   62  A    between atoms: _143  and  _144
REMARK   63  A    between atoms: _146  and  _148
REMARK   64  A    between atoms: _148  and  _149
REMARK   65  A    between atoms: _151  and  _153
REMARK   66  A    between atoms: _153  and  _154
REMARK   67  A    between atoms: _153  and  _156
REMARK   68  A    between atoms: _156  and  _157
REMARK   69  A    between atoms: _163  and  _165
REMARK   70  A    between atoms: _165  and  _166
REMARK   71  A    between atoms: _165  and  _168
REMARK   72  A    between atoms: _168  and  _169
REMARK   73  A    between atoms: _173  and  _174
REMARK   74  A    between atoms: _179  and  _181
REMARK   75  A    between atoms: _181  and  _182
REMARK   76  A    between atoms: _181  and  _184
REMARK   77  A    between atoms: _187  and  _189
REMARK   78  A    between atoms: _189  and  _190
REMARK   79  A    between atoms: _189  and  _192
REMARK   80  A    between atoms: _192  and  _193
REMARK   81  A    between atoms: _198  and  _200
REMARK   82  A    between atoms: _200  and  _201
REMARK   83  A    between atoms: _200  and  _203
REMARK   84  A    between atoms: _203  and  _204
REMARK   85  A    between atoms: _207  and  _209
REMARK   86  A    between atoms: _209  and  _210
REMARK   87  A    between atoms: _209  and  _212
REMARK   88  A    between atoms: _212  and  _213
REMARK   89  A    between atoms: _216  and  _218
REMARK   90  A    between atoms: _218  and  _219
REMARK   91  A    between atoms: _221  and  _223
REMARK   92  A    between atoms: _223  and  _224
REMARK   93  A    between atoms: _223  and  _226
REMARK   94  A    between atoms: _226  and  _227
REMARK   95  A    between atoms: _227  and  _228
REMARK   96  A    between atoms: _228  and  _229
REMARK   97  A    between atoms: _238  and  _240
REMARK   98  A    between atoms: _240  and  _241
REMARK   99  A    between atoms: _240  and  _243
REMARK  100  A    between atoms: _243  and  _244
REMARK  101  A    between atoms: _244  and  _245
REMARK  102  A    between atoms: _245  and  _246
REMARK  103  A    between atoms: _255  and  _257
REMARK  104  A    between atoms: _257  and  _258
REMARK  105  A    between atoms: _257  and  _260
REMARK  106  A    between atoms: _260  and  _261
REMARK  107  A    between atoms: _264  and  _266
REMARK  108  A    between atoms: _266  and  _267
REMARK  109  A    between atoms: _266  and  _269
REMARK  110  A    between atoms: _269  and  _270
REMARK  111  A    between atoms: _273  and  _275
REMARK  112  A    between atoms: _275  and  _276
REMARK  113  A    between atoms: _275  and  _278
REMARK  114  A    between atoms: _278  and  _279
REMARK  115  A    between atoms: _282  and  _284
REMARK  116  A    between atoms: _284  and  _285
REMARK  117  A    between atoms: _284  and  _287
REMARK  118  A    between atoms: _287  and  _288
REMARK  119  A    between atoms: _291  and  _293
REMARK  120  A    between atoms: _293  and  _294
REMARK  121  A    between atoms: _296  and  _298
REMARK  122  A    between atoms: _298  and  _299
REMARK  123  A    between atoms: _302  and  _304
REMARK  124  A    between atoms: _304  and  _305
REMARK  125  A    between atoms: _304  and  _307
REMARK  126  A    between atoms: _307  and  _308
REMARK  127  A    between atoms: _311  and  _313
REMARK  128  A    between atoms: _313  and  _314
REMARK  129  A    between atoms: _313  and  _316
REMARK  130  A    between atoms: _316  and  _317
REMARK  131  A    between atoms: _320  and  _322
REMARK  132  A    between atoms: _322  and  _323
REMARK  133  A    between atoms: _322  and  _325
REMARK  134  A    between atoms: _325  and  _326
REMARK  135  A    between atoms: _329  and  _331
REMARK  136  A    between atoms: _331  and  _332
REMARK  137  A    between atoms: _331  and  _334
REMARK  138  A    between atoms: _337  and  _339
REMARK  139  A    between atoms: _339  and  _340
REMARK  140  A    between atoms: _339  and  _342
REMARK  141  A    between atoms: _342  and  _343
REMARK  142  A    between atoms: _343  and  _344
REMARK  143  A    between atoms: _344  and  _345
REMARK  144  A    between atoms: _345  and  _346
REMARK  145  A    between atoms: _350  and  _352
REMARK  146  A    between atoms: _352  and  _353
REMARK  147  A    between atoms: _352  and  _355
REMARK  148  A    between atoms: _355  and  _356
REMARK  149  A    between atoms: _356  and  _357
REMARK  150  A    between atoms: _359  and  _361
REMARK  151  A    between atoms: _361  and  _362
REMARK  152  A    between atoms: _361  and  _364
REMARK  153  A    between atoms: _364  and  _365
REMARK  154  A    between atoms: _368  and  _370
REMARK  155  A    between atoms: _370  and  _371
REMARK  156  A    between atoms: _373  and  _375
REMARK  157  A    between atoms: _375  and  _376
REMARK  158  A    between atoms: _378  and  _380
REMARK  159  A    between atoms: _380  and  _381
REMARK  160  A    between atoms: _380  and  _383
REMARK  161  A    between atoms: _383  and  _384
REMARK  162  A    between atoms: _387  and  _389
REMARK  163  A    between atoms: _389  and  _390
REMARK  164  A    between atoms: _392  and  _394
REMARK  165  A    between atoms: _394  and  _395
REMARK  166  A    between atoms: _397  and  _399
REMARK  167  A    between atoms: _399  and  _400
REMARK  168  A    between atoms: _399  and  _402
REMARK  169  A    between atoms: _402  and  _403
REMARK  170  A    between atoms: _409  and  _411
REMARK  171  A    between atoms: _411  and  _412
REMARK  172  A    between atoms: _411  and  _414
REMARK  173  A    between atoms: _414  and  _415
REMARK  174  A    between atoms: _418  and  _420
REMARK  175  A    between atoms: _420  and  _421
REMARK  176  A    between atoms: _420  and  _423
REMARK  177  A    between atoms: _426  and  _428
REMARK  178  A    between atoms: _428  and  _429
REMARK  179  A    between atoms: _428  and  _431
REMARK  180  A    between atoms: _431  and  _432
REMARK  181  A    between atoms: _436  and  _437
REMARK  182  A    between atoms: _442  and  _444
REMARK  183  A    between atoms: _444  and  _445
REMARK  184  A    between atoms: _444  and  _447
REMARK  185  A    between atoms: _447  and  _448
REMARK  186  A    between atoms: _452  and  _453
REMARK  187  A    between atoms: _458  and  _460
REMARK  188  A    between atoms: _460  and  _461
REMARK  189  A    between atoms: _460  and  _463
REMARK  190  A    between atoms: _466  and  _468
REMARK  191  A    between atoms: _468  and  _469
REMARK  192  A    between atoms: _468  and  _471
REMARK  193  A    between atoms: _471  and  _472
REMARK  194  A    between atoms: _477  and  _479
REMARK  195  A    between atoms: _479  and  _480
REMARK  196  A    between atoms: _479  and  _482
REMARK  197  A    between atoms: _482  and  _483
REMARK  198  A    between atoms: _486  and  _488
REMARK  199  A    between atoms: _488  and  _489
REMARK  200  A    between atoms: _488  and  _491
REMARK  201  A    between atoms: _491  and  _492
REMARK  202  A    between atoms: _495  and  _497
REMARK  203  A    between atoms: _497  and  _498
REMARK  204  A    between atoms: _500  and  _502
REMARK  205  A    between atoms: _502  and  _503
REMARK  206  A    between atoms: _502  and  _505
REMARK  207  A    between atoms: _505  and  _506
REMARK  208  A    between atoms: _506  and  _507
REMARK  209  A    between atoms: _507  and  _508
REMARK  210  A    between atoms: _517  and  _519
REMARK  211  A    between atoms: _519  and  _520
REMARK  212  A    between atoms: _519  and  _522
REMARK  213  A    between atoms: _522  and  _523
REMARK                            x       y       z     vdW  Elec       q    Type
REMARK                         _______ _______ _______ _____ _____    ______ ____
ROOT
ATOM      1  O   HOH     1      26.532  20.485   9.060  0.00  0.00    +0.000 OA
ENDROOT
TORSDOF 0
REMARK  Name = ../refined-set-2016/3gi5/3gi5_pocket.pdb
REMARK  213 active torsions:
REMARK  status: ('A' for Active; 'I' for Inactive)
REMARK    1  A    between atoms: _1  and  _3
REMARK    2  A    between atoms: _3  and  _4
REMARK    3  A    between atoms: _3  and  _6
REMARK    4  A    between atoms: _6  and  _7
REMARK    5  A    between atoms: _7  and  _8
REMARK    6  A    between atoms: _8  and  _9
REMARK    7  A    between atoms: _18  and  _20
REMARK    8  A    between atoms: _20  and  _21
REMARK    9  A    between atoms: _20  and  _23
REMARK   10  A    between atoms: _23  and  _24
REMARK   11  A    between atoms: _27  and  _29
REMARK   12  A    between atoms: _29  and  _30
REMARK   13  A    between atoms: _29  and  _32
REMARK   14  A    between atoms: _32  and  _33
REMARK   15  A    between atoms: _36  and  _38
REMARK   16  A    between atoms: _38  and  _39
REMARK   17  A    between atoms: _38  and  _41
REMARK   18  A    between atoms: _41  and  _42
REMARK   19  A    between atoms: _45  and  _47
REMARK   20  A    between atoms: _47  and  _48
REMARK   21  A    between atoms: _47  and  _50
REMARK   22  A    between atoms: _50  and  _51
REMARK   23  A    between atoms: _54  and  _56
REMARK   24  A    between atoms: _56  and  _57
REMARK   25  A    between atoms: _59  and  _61
REMARK   26  A    between atoms: _61  and  _62
REMARK   27  A    between atoms: _65  and  _67
REMARK   28  A    between atoms: _67  and  _68
REMARK   29  A    between atoms: _67  and  _70
REMARK   30  A    between atoms: _70  and  _71
REMARK   31  A    between atoms: _74  and  _76
REMARK   32  A    between atoms: _76  and  _77
REMARK   33  A    between atoms: _76  and  _79
REMARK   34  A    between atoms: _79  and  _80
REMARK   35  A    between atoms: _83  and  _85
REMARK   36  A    between atoms: _85  and  _86
REMARK   37  A    between atoms: _85  and  _88
REMARK   38  A    between atoms: _88  and  _89
REMARK   39  A    between atoms: _92  and  _94
REMARK   40  A    between atoms: _94  and  _95
REMARK   41  A    between atoms: _94  and  _97
REMARK   42  A    between atoms: _100  and  _102
REMARK   43  A    between atoms: _102  and  _103
REMARK   44  A    between atoms: _102  and  _105
REMARK   45  A    between atoms: _105  and  _106
REMARK   46  A    between atoms: _106  and  _107
REMARK   47  A    between atoms: _107  and  _108
REMARK   48  A    between atoms: _108  and  _109
REMARK   49  A    between atoms: _113  and  _115
REMARK   50  A    between atoms: _115  and  _116
REMARK   51  A    between atoms: _115  and  _118
REMARK   52  A    between atoms: _118  and  _119
REMARK   53  A    between atoms: _122  and  _124
REMARK   54  A    between atoms: _124  and  _125
REMARK   55  A    between atoms: _127  and  _129
REMARK   56  A    between atoms: _129  and  _130
REMARK   57  A    between atoms: _132  and  _134
REMARK   58  A    between atoms: _134  and  _135
REMARK   59  A    between atoms: _134  and  _137
REMARK   60  A    between atoms: _137  and  _138
REMARK   61  A    between atoms: _141  and  _143
REMARK   62  A    between atoms: _143  and  _144
REMARK   63  A    between atoms: _146  and  _148
REMARK   64  A    between atoms: _148  and  _149
REMARK   65  A    between atoms: _151  and  _153
REMARK   66  A    between atoms: _153  and  _154
REMARK   67  A    between atoms: _153  and  _156
REMARK   68  A    between atoms: _156  and  _157
REMARK   69  A    between atoms: _163  and  _165
REMARK   70  A    between atoms: _165  and  _166
REMARK   71  A    between atoms: _165  and  _168
REMARK   72  A    between atoms: _168  and  _169
REMARK   73  A    between atoms: _173  and  _174
REMARK   74  A    between atoms: _179  and  _181
REMARK   75  A    between atoms: _181  and  _182
REMARK   76  A    between atoms: _181  and  _184
REMARK   77  A    between atoms: _187  and  _189
REMARK   78  A    between atoms: _189  and  _190
REMARK   79  A    between atoms: _189  and  _192
REMARK   80  A    between atoms: _192  and  _193
REMARK   81  A    between atoms: _198  and  _200
REMARK   82  A    between atoms: _200  and  _201
REMARK   83  A    between atoms: _200  and  _203
REMARK   84  A    between atoms: _203  and  _204
REMARK   85  A    between atoms: _207  and  _209
REMARK   86  A    between atoms: _209  and  _210
REMARK   87  A    between atoms: _209  and  _212
REMARK   88  A    between atoms: _212  and  _213
REMARK   89  A    between atoms: _216  and  _218
REMARK   90  A    between atoms: _218  and  _219
REMARK   91  A    between atoms: _221  and  _223
REMARK   92  A    between atoms: _223  and  _224
REMARK   93  A    between atoms: _223  and  _226
REMARK   94  A    between atoms: _226  and  _227
REMARK   95  A    between atoms: _227  and  _228
REMARK   96  A    between atoms: _228  and  _229
REMARK   97  A    between atoms: _238  and  _240
REMARK   98  A    between atoms: _240  and  _241
REMARK   99  A    between atoms: _240  and  _243
REMARK  100  A    between atoms: _243  and  _244
REMARK  101  A    between atoms: _244  and  _245
REMARK  102  A    between atoms: _245  and  _246
REMARK  103  A    between atoms: _255  and  _257
REMARK  104  A    between atoms: _257  and  _258
REMARK  105  A    between atoms: _257  and  _260
REMARK  106  A    between atoms: _260  and  _261
REMARK  107  A    between atoms: _264  and  _266
REMARK  108  A    between atoms: _266  and  _267
REMARK  109  A    between atoms: _266  and  _269
REMARK  110  A    between atoms: _269  and  _270
REMARK  111  A    between atoms: _273  and  _275
REMARK  112  A    between atoms: _275  and  _276
REMARK  113  A    between atoms: _275  and  _278
REMARK  114  A    between atoms: _278  and  _279
REMARK  115  A    between atoms: _282  and  _284
REMARK  116  A    between atoms: _284  and  _285
REMARK  117  A    between atoms: _284  and  _287
REMARK  118  A    between atoms: _287  and  _288
REMARK  119  A    between atoms: _291  and  _293
REMARK  120  A    between atoms: _293  and  _294
REMARK  121  A    between atoms: _296  and  _298
REMARK  122  A    between atoms: _298  and  _299
REMARK  123  A    between atoms: _302  and  _304
REMARK  124  A    between atoms: _304  and  _305
REMARK  125  A    between atoms: _304  and  _307
REMARK  126  A    between atoms: _307  and  _308
REMARK  127  A    between atoms: _311  and  _313
REMARK  128  A    between atoms: _313  and  _314
REMARK  129  A    between atoms: _313  and  _316
REMARK  130  A    between atoms: _316  and  _317
REMARK  131  A    between atoms: _320  and  _322
REMARK  132  A    between atoms: _322  and  _323
REMARK  133  A    between atoms: _322  and  _325
REMARK  134  A    between atoms: _325  and  _326
REMARK  135  A    between atoms: _329  and  _331
REMARK  136  A    between atoms: _331  and  _332
REMARK  137  A    between atoms: _331  and  _334
REMARK  138  A    between atoms: _337  and  _339
REMARK  139  A    between atoms: _339  and  _340
REMARK  140  A    between atoms: _339  and  _342
REMARK  141  A    between atoms: _342  and  _343
REMARK  142  A    between atoms: _343  and  _344
REMARK  143  A    between atoms: _344  and  _345
REMARK  144  A    between atoms: _345  and  _346
REMARK  145  A    between atoms: _350  and  _352
REMARK  146  A    between atoms: _352  and  _353
REMARK  147  A    between atoms: _352  and  _355
REMARK  148  A    between atoms: _355  and  _356
REMARK  149  A    between atoms: _356  and  _357
REMARK  150  A    between atoms: _359  and  _361
REMARK  151  A    between atoms: _361  and  _362
REMARK  152  A    between atoms: _361  and  _364
REMARK  153  A    between atoms: _364  and  _365
REMARK  154  A    between atoms: _368  and  _370
REMARK  155  A    between atoms: _370  and  _371
REMARK  156  A    between atoms: _373  and  _375
REMARK  157  A    between atoms: _375  and  _376
REMARK  158  A    between atoms: _378  and  _380
REMARK  159  A    between atoms: _380  and  _381
REMARK  160  A    between atoms: _380  and  _383
REMARK  161  A    between atoms: _383  and  _384
REMARK  162  A    between atoms: _387  and  _389
REMARK  163  A    between atoms: _389  and  _390
REMARK  164  A    between atoms: _392  and  _394
REMARK  165  A    between atoms: _394  and  _395
REMARK  166  A    between atoms: _397  and  _399
REMARK  167  A    between atoms: _399  and  _400
REMARK  168  A    between atoms: _399  and  _402
REMARK  169  A    between atoms: _402  and  _403
REMARK  170  A    between atoms: _409  and  _411
REMARK  171  A    between atoms: _411  and  _412
REMARK  172  A    between atoms: _411  and  _414
REMARK  173  A    between atoms: _414  and  _415
REMARK  174  A    between atoms: _418  and  _420
REMARK  175  A    between atoms: _420  and  _421
REMARK  176  A    between atoms: _420  and  _423
REMARK  177  A    between atoms: _426  and  _428
REMARK  178  A    between atoms: _428  and  _429
REMARK  179  A    between atoms: _428  and  _431
REMARK  180  A    between atoms: _431  and  _432
REMARK  181  A    between atoms: _436  and  _437
REMARK  182  A    between atoms: _442  and  _444
REMARK  183  A    between atoms: _444  and  _445
REMARK  184  A    between atoms: _444  and  _447
REMARK  185  A    between atoms: _447  and  _448
REMARK  186  A    between atoms: _452  and  _453
REMARK  187  A    between atoms: _458  and  _460
REMARK  188  A    between atoms: _460  and  _461
REMARK  189  A    between atoms: _460  and  _463
REMARK  190  A    between atoms: _466  and  _468
REMARK  191  A    between atoms: _468  and  _469
REMARK  192  A    between atoms: _468  and  _471
REMARK  193  A    between atoms: _471  and  _472
REMARK  194  A    between atoms: _477  and  _479
REMARK  195  A    between atoms: _479  and  _480
REMARK  196  A    between atoms: _479  and  _482
REMARK  197  A    between atoms: _482  and  _483
REMARK  198  A    between atoms: _486  and  _488
REMARK  199  A    between atoms: _488  and  _489
REMARK  200  A    between atoms: _488  and  _491
REMARK  201  A    between atoms: _491  and  _492
REMARK  202  A    between atoms: _495  and  _497
REMARK  203  A    between atoms: _497  and  _498
REMARK  204  A    between atoms: _500  and  _502
REMARK  205  A    between atoms: _502  and  _503
REMARK  206  A    between atoms: _502  and  _505
REMARK  207  A    between atoms: _505  and  _506
REMARK  208  A    between atoms: _506  and  _507
REMARK  209  A    between atoms: _507  and  _508
REMARK  210  A    between atoms: _517  and  _519
REMARK  211  A    between atoms: _519  and  _520
REMARK  212  A    between atoms: _519  and  _522
REMARK  213  A    between atoms: _522  and  _523
REMARK                            x       y       z     vdW  Elec       q    Type
REMARK                         _______ _______ _______ _____ _____    ______ ____
ROOT
ATOM      1  O   HOH     1      24.253  22.078   8.039  0.00  0.00    +0.000 OA
ENDROOT
TORSDOF 0
REMARK  Name = ../refined-set-2016/3gi5/3gi5_pocket.pdb
REMARK  213 active torsions:
REMARK  status: ('A' for Active; 'I' for Inactive)
REMARK    1  A    between atoms: _1  and  _3
REMARK    2  A    between atoms: _3  and  _4
REMARK    3  A    between atoms: _3  and  _6
REMARK    4  A    between atoms: _6  and  _7
REMARK    5  A    between atoms: _7  and  _8
REMARK    6  A    between atoms: _8  and  _9
REMARK    7  A    between atoms: _18  and  _20
REMARK    8  A    between atoms: _20  and  _21
REMARK    9  A    between atoms: _20  and  _23
REMARK   10  A    between atoms: _23  and  _24
REMARK   11  A    between atoms: _27  and  _29
REMARK   12  A    between atoms: _29  and  _30
REMARK   13  A    between atoms: _29  and  _32
REMARK   14  A    between atoms: _32  and  _33
REMARK   15  A    between atoms: _36  and  _38
REMARK   16  A    between atoms: _38  and  _39
REMARK   17  A    between atoms: _38  and  _41
REMARK   18  A    between atoms: _41  and  _42
REMARK   19  A    between atoms: _45  and  _47
REMARK   20  A    between atoms: _47  and  _48
REMARK   21  A    between atoms: _47  and  _50
REMARK   22  A    between atoms: _50  and  _51
REMARK   23  A    between atoms: _54  and  _56
REMARK   24  A    between atoms: _56  and  _57
REMARK   25  A    between atoms: _59  and  _61
REMARK   26  A    between atoms: _61  and  _62
REMARK   27  A    between atoms: _65  and  _67
REMARK   28  A    between atoms: _67  and  _68
REMARK   29  A    between atoms: _67  and  _70
REMARK   30  A    between atoms: _70  and  _71
REMARK   31  A    between atoms: _74  and  _76
REMARK   32  A    between atoms: _76  and  _77
REMARK   33  A    between atoms: _76  and  _79
REMARK   34  A    between atoms: _79  and  _80
REMARK   35  A    between atoms: _83  and  _85
REMARK   36  A    between atoms: _85  and  _86
REMARK   37  A    between atoms: _85  and  _88
REMARK   38  A    between atoms: _88  and  _89
REMARK   39  A    between atoms: _92  and  _94
REMARK   40  A    between atoms: _94  and  _95
REMARK   41  A    between atoms: _94  and  _97
REMARK   42  A    between atoms: _100  and  _102
REMARK   43  A    between atoms: _102  and  _103
REMARK   44  A    between atoms: _102  and  _105
REMARK   45  A    between atoms: _105  and  _106
REMARK   46  A    between atoms: _106  and  _107
REMARK   47  A    between atoms: _107  and  _108
REMARK   48  A    between atoms: _108  and  _109
REMARK   49  A    between atoms: _113  and  _115
REMARK   50  A    between atoms: _115  and  _116
REMARK   51  A    between atoms: _115  and  _118
REMARK   52  A    between atoms: _118  and  _119
REMARK   53  A    between atoms: _122  and  _124
REMARK   54  A    between atoms: _124  and  _125
REMARK   55  A    between atoms: _127  and  _129
REMARK   56  A    between atoms: _129  and  _130
REMARK   57  A    between atoms: _132  and  _134
REMARK   58  A    between atoms: _134  and  _135
REMARK   59  A    between atoms: _134  and  _137
REMARK   60  A    between atoms: _137  and  _138
REMARK   61  A    between atoms: _141  and  _143
REMARK   62  A    between atoms: _143  and  _144
REMARK   63  A    between atoms: _146  and  _148
REMARK   64  A    between atoms: _148  and  _149
REMARK   65  A    between atoms: _151  and  _153
REMARK   66  A    between atoms: _153  and  _154
REMARK   67  A    between atoms: _153  and  _156
REMARK   68  A    between atoms: _156  and  _157
REMARK   69  A    between atoms: _163  and  _165
REMARK   70  A    between atoms: _165  and  _166
REMARK   71  A    between atoms: _165  and  _168
REMARK   72  A    between atoms: _168  and  _169
REMARK   73  A    between atoms: _173  and  _174
REMARK   74  A    between atoms: _179  and  _181
REMARK   75  A    between atoms: _181  and  _182
REMARK   76  A    between atoms: _181  and  _184
REMARK   77  A    between atoms: _187  and  _189
REMARK   78  A    between atoms: _189  and  _190
REMARK   79  A    between atoms: _189  and  _192
REMARK   80  A    between atoms: _192  and  _193
REMARK   81  A    between atoms: _198  and  _200
REMARK   82  A    between atoms: _200  and  _201
REMARK   83  A    between atoms: _200  and  _203
REMARK   84  A    between atoms: _203  and  _204
REMARK   85  A    between atoms: _207  and  _209
REMARK   86  A    between atoms: _209  and  _210
REMARK   87  A    between atoms: _209  and  _212
REMARK   88  A    between atoms: _212  and  _213
REMARK   89  A    between atoms: _216  and  _218
REMARK   90  A    between atoms: _218  and  _219
REMARK   91  A    between atoms: _221  and  _223
REMARK   92  A    between atoms: _223  and  _224
REMARK   93  A    between atoms: _223  and  _226
REMARK   94  A    between atoms: _226  and  _227
REMARK   95  A    between atoms: _227  and  _228
REMARK   96  A    between atoms: _228  and  _229
REMARK   97  A    between atoms: _238  and  _240
REMARK   98  A    between atoms: _240  and  _241
REMARK   99  A    between atoms: _240  and  _243
REMARK  100  A    between atoms: _243  and  _244
REMARK  101  A    between atoms: _244  and  _245
REMARK  102  A    between atoms: _245  and  _246
REMARK  103  A    between atoms: _255  and  _257
REMARK  104  A    between atoms: _257  and  _258
REMARK  105  A    between atoms: _257  and  _260
REMARK  106  A    between atoms: _260  and  _261
REMARK  107  A    between atoms: _264  and  _266
REMARK  108  A    between atoms: _266  and  _267
REMARK  109  A    between atoms: _266  and  _269
REMARK  110  A    between atoms: _269  and  _270
REMARK  111  A    between atoms: _273  and  _275
REMARK  112  A    between atoms: _275  and  _276
REMARK  113  A    between atoms: _275  and  _278
REMARK  114  A    between atoms: _278  and  _279
REMARK  115  A    between atoms: _282  and  _284
REMARK  116  A    between atoms: _284  and  _285
REMARK  117  A    between atoms: _284  and  _287
REMARK  118  A    between atoms: _287  and  _288
REMARK  119  A    between atoms: _291  and  _293
REMARK  120  A    between atoms: _293  and  _294
REMARK  121  A    between atoms: _296  and  _298
REMARK  122  A    between atoms: _298  and  _299
REMARK  123  A    between atoms: _302  and  _304
REMARK  124  A    between atoms: _304  and  _305
REMARK  125  A    between atoms: _304  and  _307
REMARK  126  A    between atoms: _307  and  _308
REMARK  127  A    between atoms: _311  and  _313
REMARK  128  A    between atoms: _313  and  _314
REMARK  129  A    between atoms: _313  and  _316
REMARK  130  A    between atoms: _316  and  _317
REMARK  131  A    between atoms: _320  and  _322
REMARK  132  A    between atoms: _322  and  _323
REMARK  133  A    between atoms: _322  and  _325
REMARK  134  A    between atoms: _325  and  _326
REMARK  135  A    between atoms: _329  and  _331
REMARK  136  A    between atoms: _331  and  _332
REMARK  137  A    between atoms: _331  and  _334
REMARK  138  A    between atoms: _337  and  _339
REMARK  139  A    between atoms: _339  and  _340
REMARK  140  A    between atoms: _339  and  _342
REMARK  141  A    between atoms: _342  and  _343
REMARK  142  A    between atoms: _343  and  _344
REMARK  143  A    between atoms: _344  and  _345
REMARK  144  A    between atoms: _345  and  _346
REMARK  145  A    between atoms: _350  and  _352
REMARK  146  A    between atoms: _352  and  _353
REMARK  147  A    between atoms: _352  and  _355
REMARK  148  A    between atoms: _355  and  _356
REMARK  149  A    between atoms: _356  and  _357
REMARK  150  A    between atoms: _359  and  _361
REMARK  151  A    between atoms: _361  and  _362
REMARK  152  A    between atoms: _361  and  _364
REMARK  153  A    between atoms: _364  and  _365
REMARK  154  A    between atoms: _368  and  _370
REMARK  155  A    between atoms: _370  and  _371
REMARK  156  A    between atoms: _373  and  _375
REMARK  157  A    between atoms: _375  and  _376
REMARK  158  A    between atoms: _378  and  _380
REMARK  159  A    between atoms: _380  and  _381
REMARK  160  A    between atoms: _380  and  _383
REMARK  161  A    between atoms: _383  and  _384
REMARK  162  A    between atoms: _387  and  _389
REMARK  163  A    between atoms: _389  and  _390
REMARK  164  A    between atoms: _392  and  _394
REMARK  165  A    between atoms: _394  and  _395
REMARK  166  A    between atoms: _397  and  _399
REMARK  167  A    between atoms: _399  and  _400
REMARK  168  A    between atoms: _399  and  _402
REMARK  169  A    between atoms: _402  and  _403
REMARK  170  A    between atoms: _409  and  _411
REMARK  171  A    between atoms: _411  and  _412
REMARK  172  A    between atoms: _411  and  _414
REMARK  173  A    between atoms: _414  and  _415
REMARK  174  A    between atoms: _418  and  _420
REMARK  175  A    between atoms: _420  and  _421
REMARK  176  A    between atoms: _420  and  _423
REMARK  177  A    between atoms: _426  and  _428
REMARK  178  A    between atoms: _428  and  _429
REMARK  179  A    between atoms: _428  and  _431
REMARK  180  A    between atoms: _431  and  _432
REMARK  181  A    between atoms: _436  and  _437
REMARK  182  A    between atoms: _442  and  _444
REMARK  183  A    between atoms: _444  and  _445
REMARK  184  A    between atoms: _444  and  _447
REMARK  185  A    between atoms: _447  and  _448
REMARK  186  A    between atoms: _452  and  _453
REMARK  187  A    between atoms: _458  and  _460
REMARK  188  A    between atoms: _460  and  _461
REMARK  189  A    between atoms: _460  and  _463
REMARK  190  A    between atoms: _466  and  _468
REMARK  191  A    between atoms: _468  and  _469
REMARK  192  A    between atoms: _468  and  _471
REMARK  193  A    between atoms: _471  and  _472
REMARK  194  A    between atoms: _477  and  _479
REMARK  195  A    between atoms: _479  and  _480
REMARK  196  A    between atoms: _479  and  _482
REMARK  197  A    between atoms: _482  and  _483
REMARK  198  A    between atoms: _486  and  _488
REMARK  199  A    between atoms: _488  and  _489
REMARK  200  A    between atoms: _488  and  _491
REMARK  201  A    between atoms: _491  and  _492
REMARK  202  A    between atoms: _495  and  _497
REMARK  203  A    between atoms: _497  and  _498
REMARK  204  A    between atoms: _500  and  _502
REMARK  205  A    between atoms: _502  and  _503
REMARK  206  A    between atoms: _502  and  _505
REMARK  207  A    between atoms: _505  and  _506
REMARK  208  A    between atoms: _506  and  _507
REMARK  209  A    between atoms: _507  and  _508
REMARK  210  A    between atoms: _517  and  _519
REMARK  211  A    between atoms: _519  and  _520
REMARK  212  A    between atoms: _519  and  _522
REMARK  213  A    between atoms: _522  and  _523
REMARK                            x       y       z     vdW  Elec       q    Type
REMARK                         _______ _______ _______ _____ _____    ______ ____
ROOT
ATOM      1  O   HOH     1      26.212  19.026  12.961  0.00  0.00    +0.000 OA
ENDROOT
TORSDOF 0
REMARK  Name = ../refined-set-2016/3gi5/3gi5_pocket.pdb
REMARK  213 active torsions:
REMARK  status: ('A' for Active; 'I' for Inactive)
REMARK    1  A    between atoms: _1  and  _3
REMARK    2  A    between atoms: _3  and  _4
REMARK    3  A    between atoms: _3  and  _6
REMARK    4  A    between atoms: _6  and  _7
REMARK    5  A    between atoms: _7  and  _8
REMARK    6  A    between atoms: _8  and  _9
REMARK    7  A    between atoms: _18  and  _20
REMARK    8  A    between atoms: _20  and  _21
REMARK    9  A    between atoms: _20  and  _23
REMARK   10  A    between atoms: _23  and  _24
REMARK   11  A    between atoms: _27  and  _29
REMARK   12  A    between atoms: _29  and  _30
REMARK   13  A    between atoms: _29  and  _32
REMARK   14  A    between atoms: _32  and  _33
REMARK   15  A    between atoms: _36  and  _38
REMARK   16  A    between atoms: _38  and  _39
REMARK   17  A    between atoms: _38  and  _41
REMARK   18  A    between atoms: _41  and  _42
REMARK   19  A    between atoms: _45  and  _47
REMARK   20  A    between atoms: _47  and  _48
REMARK   21  A    between atoms: _47  and  _50
REMARK   22  A    between atoms: _50  and  _51
REMARK   23  A    between atoms: _54  and  _56
REMARK   24  A    between atoms: _56  and  _57
REMARK   25  A    between atoms: _59  and  _61
REMARK   26  A    between atoms: _61  and  _62
REMARK   27  A    between atoms: _65  and  _67
REMARK   28  A    between atoms: _67  and  _68
REMARK   29  A    between atoms: _67  and  _70
REMARK   30  A    between atoms: _70  and  _71
REMARK   31  A    between atoms: _74  and  _76
REMARK   32  A    between atoms: _76  and  _77
REMARK   33  A    between atoms: _76  and  _79
REMARK   34  A    between atoms: _79  and  _80
REMARK   35  A    between atoms: _83  and  _85
REMARK   36  A    between atoms: _85  and  _86
REMARK   37  A    between atoms: _85  and  _88
REMARK   38  A    between atoms: _88  and  _89
REMARK   39  A    between atoms: _92  and  _94
REMARK   40  A    between atoms: _94  and  _95
REMARK   41  A    between atoms: _94  and  _97
REMARK   42  A    between atoms: _100  and  _102
REMARK   43  A    between atoms: _102  and  _103
REMARK   44  A    between atoms: _102  and  _105
REMARK   45  A    between atoms: _105  and  _106
REMARK   46  A    between atoms: _106  and  _107
REMARK   47  A    between atoms: _107  and  _108
REMARK   48  A    between atoms: _108  and  _109
REMARK   49  A    between atoms: _113  and  _115
REMARK   50  A    between atoms: _115  and  _116
REMARK   51  A    between atoms: _115  and  _118
REMARK   52  A    between atoms: _118  and  _119
REMARK   53  A    between atoms: _122  and  _124
REMARK   54  A    between atoms: _124  and  _125
REMARK   55  A    between atoms: _127  and  _129
REMARK   56  A    between atoms: _129  and  _130
REMARK   57  A    between atoms: _132  and  _134
REMARK   58  A    between atoms: _134  and  _135
REMARK   59  A    between atoms: _134  and  _137
REMARK   60  A    between atoms: _137  and  _138
REMARK   61  A    between atoms: _141  and  _143
REMARK   62  A    between atoms: _143  and  _144
REMARK   63  A    between atoms: _146  and  _148
REMARK   64  A    between atoms: _148  and  _149
REMARK   65  A    between atoms: _151  and  _153
REMARK   66  A    between atoms: _153  and  _154
REMARK   67  A    between atoms: _153  and  _156
REMARK   68  A    between atoms: _156  and  _157
REMARK   69  A    between atoms: _163  and  _165
REMARK   70  A    between atoms: _165  and  _166
REMARK   71  A    between atoms: _165  and  _168
REMARK   72  A    between atoms: _168  and  _169
REMARK   73  A    between atoms: _173  and  _174
REMARK   74  A    between atoms: _179  and  _181
REMARK   75  A    between atoms: _181  and  _182
REMARK   76  A    between atoms: _181  and  _184
REMARK   77  A    between atoms: _187  and  _189
REMARK   78  A    between atoms: _189  and  _190
REMARK   79  A    between atoms: _189  and  _192
REMARK   80  A    between atoms: _192  and  _193
REMARK   81  A    between atoms: _198  and  _200
REMARK   82  A    between atoms: _200  and  _201
REMARK   83  A    between atoms: _200  and  _203
REMARK   84  A    between atoms: _203  and  _204
REMARK   85  A    between atoms: _207  and  _209
REMARK   86  A    between atoms: _209  and  _210
REMARK   87  A    between atoms: _209  and  _212
REMARK   88  A    between atoms: _212  and  _213
REMARK   89  A    between atoms: _216  and  _218
REMARK   90  A    between atoms: _218  and  _219
REMARK   91  A    between atoms: _221  and  _223
REMARK   92  A    between atoms: _223  and  _224
REMARK   93  A    between atoms: _223  and  _226
REMARK   94  A    between atoms: _226  and  _227
REMARK   95  A    between atoms: _227  and  _228
REMARK   96  A    between atoms: _228  and  _229
REMARK   97  A    between atoms: _238  and  _240
REMARK   98  A    between atoms: _240  and  _241
REMARK   99  A    between atoms: _240  and  _243
REMARK  100  A    between atoms: _243  and  _244
REMARK  101  A    between atoms: _244  and  _245
REMARK  102  A    between atoms: _245  and  _246
REMARK  103  A    between atoms: _255  and  _257
REMARK  104  A    between atoms: _257  and  _258
REMARK  105  A    between atoms: _257  and  _260
REMARK  106  A    between atoms: _260  and  _261
REMARK  107  A    between atoms: _264  and  _266
REMARK  108  A    between atoms: _266  and  _267
REMARK  109  A    between atoms: _266  and  _269
REMARK  110  A    between atoms: _269  and  _270
REMARK  111  A    between atoms: _273  and  _275
REMARK  112  A    between atoms: _275  and  _276
REMARK  113  A    between atoms: _275  and  _278
REMARK  114  A    between atoms: _278  and  _279
REMARK  115  A    between atoms: _282  and  _284
REMARK  116  A    between atoms: _284  and  _285
REMARK  117  A    between atoms: _284  and  _287
REMARK  118  A    between atoms: _287  and  _288
REMARK  119  A    between atoms: _291  and  _293
REMARK  120  A    between atoms: _293  and  _294
REMARK  121  A    between atoms: _296  and  _298
REMARK  122  A    between atoms: _298  and  _299
REMARK  123  A    between atoms: _302  and  _304
REMARK  124  A    between atoms: _304  and  _305
REMARK  125  A    between atoms: _304  and  _307
REMARK  126  A    between atoms: _307  and  _308
REMARK  127  A    between atoms: _311  and  _313
REMARK  128  A    between atoms: _313  and  _314
REMARK  129  A    between atoms: _313  and  _316
REMARK  130  A    between atoms: _316  and  _317
REMARK  131  A    between atoms: _320  and  _322
REMARK  132  A    between atoms: _322  and  _323
REMARK  133  A    between atoms: _322  and  _325
REMARK  134  A    between atoms: _325  and  _326
REMARK  135  A    between atoms: _329  and  _331
REMARK  136  A    between atoms: _331  and  _332
REMARK  137  A    between atoms: _331  and  _334
REMARK  138  A    between atoms: _337  and  _339
REMARK  139  A    between atoms: _339  and  _340
REMARK  140  A    between atoms: _339  and  _342
REMARK  141  A    between atoms: _342  and  _343
REMARK  142  A    between atoms: _343  and  _344
REMARK  143  A    between atoms: _344  and  _345
REMARK  144  A    between atoms: _345  and  _346
REMARK  145  A    between atoms: _350  and  _352
REMARK  146  A    between atoms: _352  and  _353
REMARK  147  A    between atoms: _352  and  _355
REMARK  148  A    between atoms: _355  and  _356
REMARK  149  A    between atoms: _356  and  _357
REMARK  150  A    between atoms: _359  and  _361
REMARK  151  A    between atoms: _361  and  _362
REMARK  152  A    between atoms: _361  and  _364
REMARK  153  A    between atoms: _364  and  _365
REMARK  154  A    between atoms: _368  and  _370
REMARK  155  A    between atoms: _370  and  _371
REMARK  156  A    between atoms: _373  and  _375
REMARK  157  A    between atoms: _375  and  _376
REMARK  158  A    between atoms: _378  and  _380
REMARK  159  A    between atoms: _380  and  _381
REMARK  160  A    between atoms: _380  and  _383
REMARK  161  A    between atoms: _383  and  _384
REMARK  162  A    between atoms: _387  and  _389
REMARK  163  A    between atoms: _389  and  _390
REMARK  164  A    between atoms: _392  and  _394
REMARK  165  A    between atoms: _394  and  _395
REMARK  166  A    between atoms: _397  and  _399
REMARK  167  A    between atoms: _399  and  _400
REMARK  168  A    between atoms: _399  and  _402
REMARK  169  A    between atoms: _402  and  _403
REMARK  170  A    between atoms: _409  and  _411
REMARK  171  A    between atoms: _411  and  _412
REMARK  172  A    between atoms: _411  and  _414
REMARK  173  A    between atoms: _414  and  _415
REMARK  174  A    between atoms: _418  and  _420
REMARK  175  A    between atoms: _420  and  _421
REMARK  176  A    between atoms: _420  and  _423
REMARK  177  A    between atoms: _426  and  _428
REMARK  178  A    between atoms: _428  and  _429
REMARK  179  A    between atoms: _428  and  _431
REMARK  180  A    between atoms: _431  and  _432
REMARK  181  A    between atoms: _436  and  _437
REMARK  182  A    between atoms: _442  and  _444
REMARK  183  A    between atoms: _444  and  _445
REMARK  184  A    between atoms: _444  and  _447
REMARK  185  A    between atoms: _447  and  _448
REMARK  186  A    between atoms: _452  and  _453
REMARK  187  A    between atoms: _458  and  _460
REMARK  188  A    between atoms: _460  and  _461
REMARK  189  A    between atoms: _460  and  _463
REMARK  190  A    between atoms: _466  and  _468
REMARK  191  A    between atoms: _468  and  _469
REMARK  192  A    between atoms: _468  and  _471
REMARK  193  A    between atoms: _471  and  _472
REMARK  194  A    between atoms: _477  and  _479
REMARK  195  A    between atoms: _479  and  _480
REMARK  196  A    between atoms: _479  and  _482
REMARK  197  A    between atoms: _482  and  _483
REMARK  198  A    between atoms: _486  and  _488
REMARK  199  A    between atoms: _488  and  _489
REMARK  200  A    between atoms: _488  and  _491
REMARK  201  A    between atoms: _491  and  _492
REMARK  202  A    between atoms: _495  and  _497
REMARK  203  A    between atoms: _497  and  _498
REMARK  204  A    between atoms: _500  and  _502
REMARK  205  A    between atoms: _502  and  _503
REMARK  206  A    between atoms: _502  and  _505
REMARK  207  A    between atoms: _505  and  _506
REMARK  208  A    between atoms: _506  and  _507
REMARK  209  A    between atoms: _507  and  _508
REMARK  210  A    between atoms: _517  and  _519
REMARK  211  A    between atoms: _519  and  _520
REMARK  212  A    between atoms: _519  and  _522
REMARK  213  A    between atoms: _522  and  _523
REMARK                            x       y       z     vdW  Elec       q    Type
REMARK                         _______ _______ _______ _____ _____    ______ ____
ROOT
ATOM      1  O   HOH     1      24.916  26.306  12.024  0.00  0.00    +0.000 OA
ENDROOT
TORSDOF 0
REMARK  Name = ../refined-set-2016/3gi5/3gi5_pocket.pdb
REMARK  213 active torsions:
REMARK  status: ('A' for Active; 'I' for Inactive)
REMARK    1  A    between atoms: _1  and  _3
REMARK    2  A    between atoms: _3  and  _4
REMARK    3  A    between atoms: _3  and  _6
REMARK    4  A    between atoms: _6  and  _7
REMARK    5  A    between atoms: _7  and  _8
REMARK    6  A    between atoms: _8  and  _9
REMARK    7  A    between atoms: _18  and  _20
REMARK    8  A    between atoms: _20  and  _21
REMARK    9  A    between atoms: _20  and  _23
REMARK   10  A    between atoms: _23  and  _24
REMARK   11  A    between atoms: _27  and  _29
REMARK   12  A    between atoms: _29  and  _30
REMARK   13  A    between atoms: _29  and  _32
REMARK   14  A    between atoms: _32  and  _33
REMARK   15  A    between atoms: _36  and  _38
REMARK   16  A    between atoms: _38  and  _39
REMARK   17  A    between atoms: _38  and  _41
REMARK   18  A    between atoms: _41  and  _42
REMARK   19  A    between atoms: _45  and  _47
REMARK   20  A    between atoms: _47  and  _48
REMARK   21  A    between atoms: _47  and  _50
REMARK   22  A    between atoms: _50  and  _51
REMARK   23  A    between atoms: _54  and  _56
REMARK   24  A    between atoms: _56  and  _57
REMARK   25  A    between atoms: _59  and  _61
REMARK   26  A    between atoms: _61  and  _62
REMARK   27  A    between atoms: _65  and  _67
REMARK   28  A    between atoms: _67  and  _68
REMARK   29  A    between atoms: _67  and  _70
REMARK   30  A    between atoms: _70  and  _71
REMARK   31  A    between atoms: _74  and  _76
REMARK   32  A    between atoms: _76  and  _77
REMARK   33  A    between atoms: _76  and  _79
REMARK   34  A    between atoms: _79  and  _80
REMARK   35  A    between atoms: _83  and  _85
REMARK   36  A    between atoms: _85  and  _86
REMARK   37  A    between atoms: _85  and  _88
REMARK   38  A    between atoms: _88  and  _89
REMARK   39  A    between atoms: _92  and  _94
REMARK   40  A    between atoms: _94  and  _95
REMARK   41  A    between atoms: _94  and  _97
REMARK   42  A    between atoms: _100  and  _102
REMARK   43  A    between atoms: _102  and  _103
REMARK   44  A    between atoms: _102  and  _105
REMARK   45  A    between atoms: _105  and  _106
REMARK   46  A    between atoms: _106  and  _107
REMARK   47  A    between atoms: _107  and  _108
REMARK   48  A    between atoms: _108  and  _109
REMARK   49  A    between atoms: _113  and  _115
REMARK   50  A    between atoms: _115  and  _116
REMARK   51  A    between atoms: _115  and  _118
REMARK   52  A    between atoms: _118  and  _119
REMARK   53  A    between atoms: _122  and  _124
REMARK   54  A    between atoms: _124  and  _125
REMARK   55  A    between atoms: _127  and  _129
REMARK   56  A    between atoms: _129  and  _130
REMARK   57  A    between atoms: _132  and  _134
REMARK   58  A    between atoms: _134  and  _135
REMARK   59  A    between atoms: _134  and  _137
REMARK   60  A    between atoms: _137  and  _138
REMARK   61  A    between atoms: _141  and  _143
REMARK   62  A    between atoms: _143  and  _144
REMARK   63  A    between atoms: _146  and  _148
REMARK   64  A    between atoms: _148  and  _149
REMARK   65  A    between atoms: _151  and  _153
REMARK   66  A    between atoms: _153  and  _154
REMARK   67  A    between atoms: _153  and  _156
REMARK   68  A    between atoms: _156  and  _157
REMARK   69  A    between atoms: _163  and  _165
REMARK   70  A    between atoms: _165  and  _166
REMARK   71  A    between atoms: _165  and  _168
REMARK   72  A    between atoms: _168  and  _169
REMARK   73  A    between atoms: _173  and  _174
REMARK   74  A    between atoms: _179  and  _181
REMARK   75  A    between atoms: _181  and  _182
REMARK   76  A    between atoms: _181  and  _184
REMARK   77  A    between atoms: _187  and  _189
REMARK   78  A    between atoms: _189  and  _190
REMARK   79  A    between atoms: _189  and  _192
REMARK   80  A    between atoms: _192  and  _193
REMARK   81  A    between atoms: _198  and  _200
REMARK   82  A    between atoms: _200  and  _201
REMARK   83  A    between atoms: _200  and  _203
REMARK   84  A    between atoms: _203  and  _204
REMARK   85  A    between atoms: _207  and  _209
REMARK   86  A    between atoms: _209  and  _210
REMARK   87  A    between atoms: _209  and  _212
REMARK   88  A    between atoms: _212  and  _213
REMARK   89  A    between atoms: _216  and  _218
REMARK   90  A    between atoms: _218  and  _219
REMARK   91  A    between atoms: _221  and  _223
REMARK   92  A    between atoms: _223  and  _224
REMARK   93  A    between atoms: _223  and  _226
REMARK   94  A    between atoms: _226  and  _227
REMARK   95  A    between atoms: _227  and  _228
REMARK   96  A    between atoms: _228  and  _229
REMARK   97  A    between atoms: _238  and  _240
REMARK   98  A    between atoms: _240  and  _241
REMARK   99  A    between atoms: _240  and  _243
REMARK  100  A    between atoms: _243  and  _244
REMARK  101  A    between atoms: _244  and  _245
REMARK  102  A    between atoms: _245  and  _246
REMARK  103  A    between atoms: _255  and  _257
REMARK  104  A    between atoms: _257  and  _258
REMARK  105  A    between atoms: _257  and  _260
REMARK  106  A    between atoms: _260  and  _261
REMARK  107  A    between atoms: _264  and  _266
REMARK  108  A    between atoms: _266  and  _267
REMARK  109  A    between atoms: _266  and  _269
REMARK  110  A    between atoms: _269  and  _270
REMARK  111  A    between atoms: _273  and  _275
REMARK  112  A    between atoms: _275  and  _276
REMARK  113  A    between atoms: _275  and  _278
REMARK  114  A    between atoms: _278  and  _279
REMARK  115  A    between atoms: _282  and  _284
REMARK  116  A    between atoms: _284  and  _285
REMARK  117  A    between atoms: _284  and  _287
REMARK  118  A    between atoms: _287  and  _288
REMARK  119  A    between atoms: _291  and  _293
REMARK  120  A    between atoms: _293  and  _294
REMARK  121  A    between atoms: _296  and  _298
REMARK  122  A    between atoms: _298  and  _299
REMARK  123  A    between atoms: _302  and  _304
REMARK  124  A    between atoms: _304  and  _305
REMARK  125  A    between atoms: _304  and  _307
REMARK  126  A    between atoms: _307  and  _308
REMARK  127  A    between atoms: _311  and  _313
REMARK  128  A    between atoms: _313  and  _314
REMARK  129  A    between atoms: _313  and  _316
REMARK  130  A    between atoms: _316  and  _317
REMARK  131  A    between atoms: _320  and  _322
REMARK  132  A    between atoms: _322  and  _323
REMARK  133  A    between atoms: _322  and  _325
REMARK  134  A    between atoms: _325  and  _326
REMARK  135  A    between atoms: _329  and  _331
REMARK  136  A    between atoms: _331  and  _332
REMARK  137  A    between atoms: _331  and  _334
REMARK  138  A    between atoms: _337  and  _339
REMARK  139  A    between atoms: _339  and  _340
REMARK  140  A    between atoms: _339  and  _342
REMARK  141  A    between atoms: _342  and  _343
REMARK  142  A    between atoms: _343  and  _344
REMARK  143  A    between atoms: _344  and  _345
REMARK  144  A    between atoms: _345  and  _346
REMARK  145  A    between atoms: _350  and  _352
REMARK  146  A    between atoms: _352  and  _353
REMARK  147  A    between atoms: _352  and  _355
REMARK  148  A    between atoms: _355  and  _356
REMARK  149  A    between atoms: _356  and  _357
REMARK  150  A    between atoms: _359  and  _361
REMARK  151  A    between atoms: _361  and  _362
REMARK  152  A    between atoms: _361  and  _364
REMARK  153  A    between atoms: _364  and  _365
REMARK  154  A    between atoms: _368  and  _370
REMARK  155  A    between atoms: _370  and  _371
REMARK  156  A    between atoms: _373  and  _375
REMARK  157  A    between atoms: _375  and  _376
REMARK  158  A    between atoms: _378  and  _380
REMARK  159  A    between atoms: _380  and  _381
REMARK  160  A    between atoms: _380  and  _383
REMARK  161  A    between atoms: _383  and  _384
REMARK  162  A    between atoms: _387  and  _389
REMARK  163  A    between atoms: _389  and  _390
REMARK  164  A    between atoms: _392  and  _394
REMARK  165  A    between atoms: _394  and  _395
REMARK  166  A    between atoms: _397  and  _399
REMARK  167  A    between atoms: _399  and  _400
REMARK  168  A    between atoms: _399  and  _402
REMARK  169  A    between atoms: _402  and  _403
REMARK  170  A    between atoms: _409  and  _411
REMARK  171  A    between atoms: _411  and  _412
REMARK  172  A    between atoms: _411  and  _414
REMARK  173  A    between atoms: _414  and  _415
REMARK  174  A    between atoms: _418  and  _420
REMARK  175  A    between atoms: _420  and  _421
REMARK  176  A    between atoms: _420  and  _423
REMARK  177  A    between atoms: _426  and  _428
REMARK  178  A    between atoms: _428  and  _429
REMARK  179  A    between atoms: _428  and  _431
REMARK  180  A    between atoms: _431  and  _432
REMARK  181  A    between atoms: _436  and  _437
REMARK  182  A    between atoms: _442  and  _444
REMARK  183  A    between atoms: _444  and  _445
REMARK  184  A    between atoms: _444  and  _447
REMARK  185  A    between atoms: _447  and  _448
REMARK  186  A    between atoms: _452  and  _453
REMARK  187  A    between atoms: _458  and  _460
REMARK  188  A    between atoms: _460  and  _461
REMARK  189  A    between atoms: _460  and  _463
REMARK  190  A    between atoms: _466  and  _468
REMARK  191  A    between atoms: _468  and  _469
REMARK  192  A    between atoms: _468  and  _471
REMARK  193  A    between atoms: _471  and  _472
REMARK  194  A    between atoms: _477  and  _479
REMARK  195  A    between atoms: _479  and  _480
REMARK  196  A    between atoms: _479  and  _482
REMARK  197  A    between atoms: _482  and  _483
REMARK  198  A    between atoms: _486  and  _488
REMARK  199  A    between atoms: _488  and  _489
REMARK  200  A    between atoms: _488  and  _491
REMARK  201  A    between atoms: _491  and  _492
REMARK  202  A    between atoms: _495  and  _497
REMARK  203  A    between atoms: _497  and  _498
REMARK  204  A    between atoms: _500  and  _502
REMARK  205  A    between atoms: _502  and  _503
REMARK  206  A    between atoms: _502  and  _505
REMARK  207  A    between atoms: _505  and  _506
REMARK  208  A    between atoms: _506  and  _507
REMARK  209  A    between atoms: _507  and  _508
REMARK  210  A    between atoms: _517  and  _519
REMARK  211  A    between atoms: _519  and  _520
REMARK  212  A    between atoms: _519  and  _522
REMARK  213  A    between atoms: _522  and  _523
REMARK                            x       y       z     vdW  Elec       q    Type
REMARK                         _______ _______ _______ _____ _____    ______ ____
ROOT
ATOM      1  O   HOH     1      20.149  21.694  15.315  0.00  0.00    +0.000 OA
ENDROOT
TORSDOF 0
REMARK  Name = ../refined-set-2016/3gi5/3gi5_pocket.pdb
REMARK  213 active torsions:
REMARK  status: ('A' for Active; 'I' for Inactive)
REMARK    1  A    between atoms: _1  and  _3
REMARK    2  A    between atoms: _3  and  _4
REMARK    3  A    between atoms: _3  and  _6
REMARK    4  A    between atoms: _6  and  _7
REMARK    5  A    between atoms: _7  and  _8
REMARK    6  A    between atoms: _8  and  _9
REMARK    7  A    between atoms: _18  and  _20
REMARK    8  A    between atoms: _20  and  _21
REMARK    9  A    between atoms: _20  and  _23
REMARK   10  A    between atoms: _23  and  _24
REMARK   11  A    between atoms: _27  and  _29
REMARK   12  A    between atoms: _29  and  _30
REMARK   13  A    between atoms: _29  and  _32
REMARK   14  A    between atoms: _32  and  _33
REMARK   15  A    between atoms: _36  and  _38
REMARK   16  A    between atoms: _38  and  _39
REMARK   17  A    between atoms: _38  and  _41
REMARK   18  A    between atoms: _41  and  _42
REMARK   19  A    between atoms: _45  and  _47
REMARK   20  A    between atoms: _47  and  _48
REMARK   21  A    between atoms: _47  and  _50
REMARK   22  A    between atoms: _50  and  _51
REMARK   23  A    between atoms: _54  and  _56
REMARK   24  A    between atoms: _56  and  _57
REMARK   25  A    between atoms: _59  and  _61
REMARK   26  A    between atoms: _61  and  _62
REMARK   27  A    between atoms: _65  and  _67
REMARK   28  A    between atoms: _67  and  _68
REMARK   29  A    between atoms: _67  and  _70
REMARK   30  A    between atoms: _70  and  _71
REMARK   31  A    between atoms: _74  and  _76
REMARK   32  A    between atoms: _76  and  _77
REMARK   33  A    between atoms: _76  and  _79
REMARK   34  A    between atoms: _79  and  _80
REMARK   35  A    between atoms: _83  and  _85
REMARK   36  A    between atoms: _85  and  _86
REMARK   37  A    between atoms: _85  and  _88
REMARK   38  A    between atoms: _88  and  _89
REMARK   39  A    between atoms: _92  and  _94
REMARK   40  A    between atoms: _94  and  _95
REMARK   41  A    between atoms: _94  and  _97
REMARK   42  A    between atoms: _100  and  _102
REMARK   43  A    between atoms: _102  and  _103
REMARK   44  A    between atoms: _102  and  _105
REMARK   45  A    between atoms: _105  and  _106
REMARK   46  A    between atoms: _106  and  _107
REMARK   47  A    between atoms: _107  and  _108
REMARK   48  A    between atoms: _108  and  _109
REMARK   49  A    between atoms: _113  and  _115
REMARK   50  A    between atoms: _115  and  _116
REMARK   51  A    between atoms: _115  and  _118
REMARK   52  A    between atoms: _118  and  _119
REMARK   53  A    between atoms: _122  and  _124
REMARK   54  A    between atoms: _124  and  _125
REMARK   55  A    between atoms: _127  and  _129
REMARK   56  A    between atoms: _129  and  _130
REMARK   57  A    between atoms: _132  and  _134
REMARK   58  A    between atoms: _134  and  _135
REMARK   59  A    between atoms: _134  and  _137
REMARK   60  A    between atoms: _137  and  _138
REMARK   61  A    between atoms: _141  and  _143
REMARK   62  A    between atoms: _143  and  _144
REMARK   63  A    between atoms: _146  and  _148
REMARK   64  A    between atoms: _148  and  _149
REMARK   65  A    between atoms: _151  and  _153
REMARK   66  A    between atoms: _153  and  _154
REMARK   67  A    between atoms: _153  and  _156
REMARK   68  A    between atoms: _156  and  _157
REMARK   69  A    between atoms: _163  and  _165
REMARK   70  A    between atoms: _165  and  _166
REMARK   71  A    between atoms: _165  and  _168
REMARK   72  A    between atoms: _168  and  _169
REMARK   73  A    between atoms: _173  and  _174
REMARK   74  A    between atoms: _179  and  _181
REMARK   75  A    between atoms: _181  and  _182
REMARK   76  A    between atoms: _181  and  _184
REMARK   77  A    between atoms: _187  and  _189
REMARK   78  A    between atoms: _189  and  _190
REMARK   79  A    between atoms: _189  and  _192
REMARK   80  A    between atoms: _192  and  _193
REMARK   81  A    between atoms: _198  and  _200
REMARK   82  A    between atoms: _200  and  _201
REMARK   83  A    between atoms: _200  and  _203
REMARK   84  A    between atoms: _203  and  _204
REMARK   85  A    between atoms: _207  and  _209
REMARK   86  A    between atoms: _209  and  _210
REMARK   87  A    between atoms: _209  and  _212
REMARK   88  A    between atoms: _212  and  _213
REMARK   89  A    between atoms: _216  and  _218
REMARK   90  A    between atoms: _218  and  _219
REMARK   91  A    between atoms: _221  and  _223
REMARK   92  A    between atoms: _223  and  _224
REMARK   93  A    between atoms: _223  and  _226
REMARK   94  A    between atoms: _226  and  _227
REMARK   95  A    between atoms: _227  and  _228
REMARK   96  A    between atoms: _228  and  _229
REMARK   97  A    between atoms: _238  and  _240
REMARK   98  A    between atoms: _240  and  _241
REMARK   99  A    between atoms: _240  and  _243
REMARK  100  A    between atoms: _243  and  _244
REMARK  101  A    between atoms: _244  and  _245
REMARK  102  A    between atoms: _245  and  _246
REMARK  103  A    between atoms: _255  and  _257
REMARK  104  A    between atoms: _257  and  _258
REMARK  105  A    between atoms: _257  and  _260
REMARK  106  A    between atoms: _260  and  _261
REMARK  107  A    between atoms: _264  and  _266
REMARK  108  A    between atoms: _266  and  _267
REMARK  109  A    between atoms: _266  and  _269
REMARK  110  A    between atoms: _269  and  _270
REMARK  111  A    between atoms: _273  and  _275
REMARK  112  A    between atoms: _275  and  _276
REMARK  113  A    between atoms: _275  and  _278
REMARK  114  A    between atoms: _278  and  _279
REMARK  115  A    between atoms: _282  and  _284
REMARK  116  A    between atoms: _284  and  _285
REMARK  117  A    between atoms: _284  and  _287
REMARK  118  A    between atoms: _287  and  _288
REMARK  119  A    between atoms: _291  and  _293
REMARK  120  A    between atoms: _293  and  _294
REMARK  121  A    between atoms: _296  and  _298
REMARK  122  A    between atoms: _298  and  _299
REMARK  123  A    between atoms: _302  and  _304
REMARK  124  A    between atoms: _304  and  _305
REMARK  125  A    between atoms: _304  and  _307
REMARK  126  A    between atoms: _307  and  _308
REMARK  127  A    between atoms: _311  and  _313
REMARK  128  A    between atoms: _313  and  _314
REMARK  129  A    between atoms: _313  and  _316
REMARK  130  A    between atoms: _316  and  _317
REMARK  131  A    between atoms: _320  and  _322
REMARK  132  A    between atoms: _322  and  _323
REMARK  133  A    between atoms: _322  and  _325
REMARK  134  A    between atoms: _325  and  _326
REMARK  135  A    between atoms: _329  and  _331
REMARK  136  A    between atoms: _331  and  _332
REMARK  137  A    between atoms: _331  and  _334
REMARK  138  A    between atoms: _337  and  _339
REMARK  139  A    between atoms: _339  and  _340
REMARK  140  A    between atoms: _339  and  _342
REMARK  141  A    between atoms: _342  and  _343
REMARK  142  A    between atoms: _343  and  _344
REMARK  143  A    between atoms: _344  and  _345
REMARK  144  A    between atoms: _345  and  _346
REMARK  145  A    between atoms: _350  and  _352
REMARK  146  A    between atoms: _352  and  _353
REMARK  147  A    between atoms: _352  and  _355
REMARK  148  A    between atoms: _355  and  _356
REMARK  149  A    between atoms: _356  and  _357
REMARK  150  A    between atoms: _359  and  _361
REMARK  151  A    between atoms: _361  and  _362
REMARK  152  A    between atoms: _361  and  _364
REMARK  153  A    between atoms: _364  and  _365
REMARK  154  A    between atoms: _368  and  _370
REMARK  155  A    between atoms: _370  and  _371
REMARK  156  A    between atoms: _373  and  _375
REMARK  157  A    between atoms: _375  and  _376
REMARK  158  A    between atoms: _378  and  _380
REMARK  159  A    between atoms: _380  and  _381
REMARK  160  A    between atoms: _380  and  _383
REMARK  161  A    between atoms: _383  and  _384
REMARK  162  A    between atoms: _387  and  _389
REMARK  163  A    between atoms: _389  and  _390
REMARK  164  A    between atoms: _392  and  _394
REMARK  165  A    between atoms: _394  and  _395
REMARK  166  A    between atoms: _397  and  _399
REMARK  167  A    between atoms: _399  and  _400
REMARK  168  A    between atoms: _399  and  _402
REMARK  169  A    between atoms: _402  and  _403
REMARK  170  A    between atoms: _409  and  _411
REMARK  171  A    between atoms: _411  and  _412
REMARK  172  A    between atoms: _411  and  _414
REMARK  173  A    between atoms: _414  and  _415
REMARK  174  A    between atoms: _418  and  _420
REMARK  175  A    between atoms: _420  and  _421
REMARK  176  A    between atoms: _420  and  _423
REMARK  177  A    between atoms: _426  and  _428
REMARK  178  A    between atoms: _428  and  _429
REMARK  179  A    between atoms: _428  and  _431
REMARK  180  A    between atoms: _431  and  _432
REMARK  181  A    between atoms: _436  and  _437
REMARK  182  A    between atoms: _442  and  _444
REMARK  183  A    between atoms: _444  and  _445
REMARK  184  A    between atoms: _444  and  _447
REMARK  185  A    between atoms: _447  and  _448
REMARK  186  A    between atoms: _452  and  _453
REMARK  187  A    between atoms: _458  and  _460
REMARK  188  A    between atoms: _460  and  _461
REMARK  189  A    between atoms: _460  and  _463
REMARK  190  A    between atoms: _466  and  _468
REMARK  191  A    between atoms: _468  and  _469
REMARK  192  A    between atoms: _468  and  _471
REMARK  193  A    between atoms: _471  and  _472
REMARK  194  A    between atoms: _477  and  _479
REMARK  195  A    between atoms: _479  and  _480
REMARK  196  A    between atoms: _479  and  _482
REMARK  197  A    between atoms: _482  and  _483
REMARK  198  A    between atoms: _486  and  _488
REMARK  199  A    between atoms: _488  and  _489
REMARK  200  A    between atoms: _488  and  _491
REMARK  201  A    between atoms: _491  and  _492
REMARK  202  A    between atoms: _495  and  _497
REMARK  203  A    between atoms: _497  and  _498
REMARK  204  A    between atoms: _500  and  _502
REMARK  205  A    between atoms: _502  and  _503
REMARK  206  A    between atoms: _502  and  _505
REMARK  207  A    between atoms: _505  and  _506
REMARK  208  A    between atoms: _506  and  _507
REMARK  209  A    between atoms: _507  and  _508
REMARK  210  A    between atoms: _517  and  _519
REMARK  211  A    between atoms: _519  and  _520
REMARK  212  A    between atoms: _519  and  _522
REMARK  213  A    between atoms: _522  and  _523
REMARK                            x       y       z     vdW  Elec       q    Type
REMARK                         _______ _______ _______ _____ _____    ______ ____
ROOT
ATOM      1  O   HOH     1      20.008  32.431  11.682  0.00  0.00    +0.000 OA
ENDROOT
TORSDOF 0
REMARK  Name = ../refined-set-2016/3gi5/3gi5_pocket.pdb
REMARK  213 active torsions:
REMARK  status: ('A' for Active; 'I' for Inactive)
REMARK    1  A    between atoms: _1  and  _3
REMARK    2  A    between atoms: _3  and  _4
REMARK    3  A    between atoms: _3  and  _6
REMARK    4  A    between atoms: _6  and  _7
REMARK    5  A    between atoms: _7  and  _8
REMARK    6  A    between atoms: _8  and  _9
REMARK    7  A    between atoms: _18  and  _20
REMARK    8  A    between atoms: _20  and  _21
REMARK    9  A    between atoms: _20  and  _23
REMARK   10  A    between atoms: _23  and  _24
REMARK   11  A    between atoms: _27  and  _29
REMARK   12  A    between atoms: _29  and  _30
REMARK   13  A    between atoms: _29  and  _32
REMARK   14  A    between atoms: _32  and  _33
REMARK   15  A    between atoms: _36  and  _38
REMARK   16  A    between atoms: _38  and  _39
REMARK   17  A    between atoms: _38  and  _41
REMARK   18  A    between atoms: _41  and  _42
REMARK   19  A    between atoms: _45  and  _47
REMARK   20  A    between atoms: _47  and  _48
REMARK   21  A    between atoms: _47  and  _50
REMARK   22  A    between atoms: _50  and  _51
REMARK   23  A    between atoms: _54  and  _56
REMARK   24  A    between atoms: _56  and  _57
REMARK   25  A    between atoms: _59  and  _61
REMARK   26  A    between atoms: _61  and  _62
REMARK   27  A    between atoms: _65  and  _67
REMARK   28  A    between atoms: _67  and  _68
REMARK   29  A    between atoms: _67  and  _70
REMARK   30  A    between atoms: _70  and  _71
REMARK   31  A    between atoms: _74  and  _76
REMARK   32  A    between atoms: _76  and  _77
REMARK   33  A    between atoms: _76  and  _79
REMARK   34  A    between atoms: _79  and  _80
REMARK   35  A    between atoms: _83  and  _85
REMARK   36  A    between atoms: _85  and  _86
REMARK   37  A    between atoms: _85  and  _88
REMARK   38  A    between atoms: _88  and  _89
REMARK   39  A    between atoms: _92  and  _94
REMARK   40  A    between atoms: _94  and  _95
REMARK   41  A    between atoms: _94  and  _97
REMARK   42  A    between atoms: _100  and  _102
REMARK   43  A    between atoms: _102  and  _103
REMARK   44  A    between atoms: _102  and  _105
REMARK   45  A    between atoms: _105  and  _106
REMARK   46  A    between atoms: _106  and  _107
REMARK   47  A    between atoms: _107  and  _108
REMARK   48  A    between atoms: _108  and  _109
REMARK   49  A    between atoms: _113  and  _115
REMARK   50  A    between atoms: _115  and  _116
REMARK   51  A    between atoms: _115  and  _118
REMARK   52  A    between atoms: _118  and  _119
REMARK   53  A    between atoms: _122  and  _124
REMARK   54  A    between atoms: _124  and  _125
REMARK   55  A    between atoms: _127  and  _129
REMARK   56  A    between atoms: _129  and  _130
REMARK   57  A    between atoms: _132  and  _134
REMARK   58  A    between atoms: _134  and  _135
REMARK   59  A    between atoms: _134  and  _137
REMARK   60  A    between atoms: _137  and  _138
REMARK   61  A    between atoms: _141  and  _143
REMARK   62  A    between atoms: _143  and  _144
REMARK   63  A    between atoms: _146  and  _148
REMARK   64  A    between atoms: _148  and  _149
REMARK   65  A    between atoms: _151  and  _153
REMARK   66  A    between atoms: _153  and  _154
REMARK   67  A    between atoms: _153  and  _156
REMARK   68  A    between atoms: _156  and  _157
REMARK   69  A    between atoms: _163  and  _165
REMARK   70  A    between atoms: _165  and  _166
REMARK   71  A    between atoms: _165  and  _168
REMARK   72  A    between atoms: _168  and  _169
REMARK   73  A    between atoms: _173  and  _174
REMARK   74  A    between atoms: _179  and  _181
REMARK   75  A    between atoms: _181  and  _182
REMARK   76  A    between atoms: _181  and  _184
REMARK   77  A    between atoms: _187  and  _189
REMARK   78  A    between atoms: _189  and  _190
REMARK   79  A    between atoms: _189  and  _192
REMARK   80  A    between atoms: _192  and  _193
REMARK   81  A    between atoms: _198  and  _200
REMARK   82  A    between atoms: _200  and  _201
REMARK   83  A    between atoms: _200  and  _203
REMARK   84  A    between atoms: _203  and  _204
REMARK   85  A    between atoms: _207  and  _209
REMARK   86  A    between atoms: _209  and  _210
REMARK   87  A    between atoms: _209  and  _212
REMARK   88  A    between atoms: _212  and  _213
REMARK   89  A    between atoms: _216  and  _218
REMARK   90  A    between atoms: _218  and  _219
REMARK   91  A    between atoms: _221  and  _223
REMARK   92  A    between atoms: _223  and  _224
REMARK   93  A    between atoms: _223  and  _226
REMARK   94  A    between atoms: _226  and  _227
REMARK   95  A    between atoms: _227  and  _228
REMARK   96  A    between atoms: _228  and  _229
REMARK   97  A    between atoms: _238  and  _240
REMARK   98  A    between atoms: _240  and  _241
REMARK   99  A    between atoms: _240  and  _243
REMARK  100  A    between atoms: _243  and  _244
REMARK  101  A    between atoms: _244  and  _245
REMARK  102  A    between atoms: _245  and  _246
REMARK  103  A    between atoms: _255  and  _257
REMARK  104  A    between atoms: _257  and  _258
REMARK  105  A    between atoms: _257  and  _260
REMARK  106  A    between atoms: _260  and  _261
REMARK  107  A    between atoms: _264  and  _266
REMARK  108  A    between atoms: _266  and  _267
REMARK  109  A    between atoms: _266  and  _269
REMARK  110  A    between atoms: _269  and  _270
REMARK  111  A    between atoms: _273  and  _275
REMARK  112  A    between atoms: _275  and  _276
REMARK  113  A    between atoms: _275  and  _278
REMARK  114  A    between atoms: _278  and  _279
REMARK  115  A    between atoms: _282  and  _284
REMARK  116  A    between atoms: _284  and  _285
REMARK  117  A    between atoms: _284  and  _287
REMARK  118  A    between atoms: _287  and  _288
REMARK  119  A    between atoms: _291  and  _293
REMARK  120  A    between atoms: _293  and  _294
REMARK  121  A    between atoms: _296  and  _298
REMARK  122  A    between atoms: _298  and  _299
REMARK  123  A    between atoms: _302  and  _304
REMARK  124  A    between atoms: _304  and  _305
REMARK  125  A    between atoms: _304  and  _307
REMARK  126  A    between atoms: _307  and  _308
REMARK  127  A    between atoms: _311  and  _313
REMARK  128  A    between atoms: _313  and  _314
REMARK  129  A    between atoms: _313  and  _316
REMARK  130  A    between atoms: _316  and  _317
REMARK  131  A    between atoms: _320  and  _322
REMARK  132  A    between atoms: _322  and  _323
REMARK  133  A    between atoms: _322  and  _325
REMARK  134  A    between atoms: _325  and  _326
REMARK  135  A    between atoms: _329  and  _331
REMARK  136  A    between atoms: _331  and  _332
REMARK  137  A    between atoms: _331  and  _334
REMARK  138  A    between atoms: _337  and  _339
REMARK  139  A    between atoms: _339  and  _340
REMARK  140  A    between atoms: _339  and  _342
REMARK  141  A    between atoms: _342  and  _343
REMARK  142  A    between atoms: _343  and  _344
REMARK  143  A    between atoms: _344  and  _345
REMARK  144  A    between atoms: _345  and  _346
REMARK  145  A    between atoms: _350  and  _352
REMARK  146  A    between atoms: _352  and  _353
REMARK  147  A    between atoms: _352  and  _355
REMARK  148  A    between atoms: _355  and  _356
REMARK  149  A    between atoms: _356  and  _357
REMARK  150  A    between atoms: _359  and  _361
REMARK  151  A    between atoms: _361  and  _362
REMARK  152  A    between atoms: _361  and  _364
REMARK  153  A    between atoms: _364  and  _365
REMARK  154  A    between atoms: _368  and  _370
REMARK  155  A    between atoms: _370  and  _371
REMARK  156  A    between atoms: _373  and  _375
REMARK  157  A    between atoms: _375  and  _376
REMARK  158  A    between atoms: _378  and  _380
REMARK  159  A    between atoms: _380  and  _381
REMARK  160  A    between atoms: _380  and  _383
REMARK  161  A    between atoms: _383  and  _384
REMARK  162  A    between atoms: _387  and  _389
REMARK  163  A    between atoms: _389  and  _390
REMARK  164  A    between atoms: _392  and  _394
REMARK  165  A    between atoms: _394  and  _395
REMARK  166  A    between atoms: _397  and  _399
REMARK  167  A    between atoms: _399  and  _400
REMARK  168  A    between atoms: _399  and  _402
REMARK  169  A    between atoms: _402  and  _403
REMARK  170  A    between atoms: _409  and  _411
REMARK  171  A    between atoms: _411  and  _412
REMARK  172  A    between atoms: _411  and  _414
REMARK  173  A    between atoms: _414  and  _415
REMARK  174  A    between atoms: _418  and  _420
REMARK  175  A    between atoms: _420  and  _421
REMARK  176  A    between atoms: _420  and  _423
REMARK  177  A    between atoms: _426  and  _428
REMARK  178  A    between atoms: _428  and  _429
REMARK  179  A    between atoms: _428  and  _431
REMARK  180  A    between atoms: _431  and  _432
REMARK  181  A    between atoms: _436  and  _437
REMARK  182  A    between atoms: _442  and  _444
REMARK  183  A    between atoms: _444  and  _445
REMARK  184  A    between atoms: _444  and  _447
REMARK  185  A    between atoms: _447  and  _448
REMARK  186  A    between atoms: _452  and  _453
REMARK  187  A    between atoms: _458  and  _460
REMARK  188  A    between atoms: _460  and  _461
REMARK  189  A    between atoms: _460  and  _463
REMARK  190  A    between atoms: _466  and  _468
REMARK  191  A    between atoms: _468  and  _469
REMARK  192  A    between atoms: _468  and  _471
REMARK  193  A    between atoms: _471  and  _472
REMARK  194  A    between atoms: _477  and  _479
REMARK  195  A    between atoms: _479  and  _480
REMARK  196  A    between atoms: _479  and  _482
REMARK  197  A    between atoms: _482  and  _483
REMARK  198  A    between atoms: _486  and  _488
REMARK  199  A    between atoms: _488  and  _489
REMARK  200  A    between atoms: _488  and  _491
REMARK  201  A    between atoms: _491  and  _492
REMARK  202  A    between atoms: _495  and  _497
REMARK  203  A    between atoms: _497  and  _498
REMARK  204  A    between atoms: _500  and  _502
REMARK  205  A    between atoms: _502  and  _503
REMARK  206  A    between atoms: _502  and  _505
REMARK  207  A    between atoms: _505  and  _506
REMARK  208  A    between atoms: _506  and  _507
REMARK  209  A    between atoms: _507  and  _508
REMARK  210  A    between atoms: _517  and  _519
REMARK  211  A    between atoms: _519  and  _520
REMARK  212  A    between atoms: _519  and  _522
REMARK  213  A    between atoms: _522  and  _523
REMARK                            x       y       z     vdW  Elec       q    Type
REMARK                         _______ _______ _______ _____ _____    ______ ____
ROOT
ATOM      1  O   HOH     1      22.500  36.148  21.091  0.00  0.00    +0.000 OA
ENDROOT
TORSDOF 0
REMARK  Name = ../refined-set-2016/3gi5/3gi5_pocket.pdb
REMARK  213 active torsions:
REMARK  status: ('A' for Active; 'I' for Inactive)
REMARK    1  A    between atoms: _1  and  _3
REMARK    2  A    between atoms: _3  and  _4
REMARK    3  A    between atoms: _3  and  _6
REMARK    4  A    between atoms: _6  and  _7
REMARK    5  A    between atoms: _7  and  _8
REMARK    6  A    between atoms: _8  and  _9
REMARK    7  A    between atoms: _18  and  _20
REMARK    8  A    between atoms: _20  and  _21
REMARK    9  A    between atoms: _20  and  _23
REMARK   10  A    between atoms: _23  and  _24
REMARK   11  A    between atoms: _27  and  _29
REMARK   12  A    between atoms: _29  and  _30
REMARK   13  A    between atoms: _29  and  _32
REMARK   14  A    between atoms: _32  and  _33
REMARK   15  A    between atoms: _36  and  _38
REMARK   16  A    between atoms: _38  and  _39
REMARK   17  A    between atoms: _38  and  _41
REMARK   18  A    between atoms: _41  and  _42
REMARK   19  A    between atoms: _45  and  _47
REMARK   20  A    between atoms: _47  and  _48
REMARK   21  A    between atoms: _47  and  _50
REMARK   22  A    between atoms: _50  and  _51
REMARK   23  A    between atoms: _54  and  _56
REMARK   24  A    between atoms: _56  and  _57
REMARK   25  A    between atoms: _59  and  _61
REMARK   26  A    between atoms: _61  and  _62
REMARK   27  A    between atoms: _65  and  _67
REMARK   28  A    between atoms: _67  and  _68
REMARK   29  A    between atoms: _67  and  _70
REMARK   30  A    between atoms: _70  and  _71
REMARK   31  A    between atoms: _74  and  _76
REMARK   32  A    between atoms: _76  and  _77
REMARK   33  A    between atoms: _76  and  _79
REMARK   34  A    between atoms: _79  and  _80
REMARK   35  A    between atoms: _83  and  _85
REMARK   36  A    between atoms: _85  and  _86
REMARK   37  A    between atoms: _85  and  _88
REMARK   38  A    between atoms: _88  and  _89
REMARK   39  A    between atoms: _92  and  _94
REMARK   40  A    between atoms: _94  and  _95
REMARK   41  A    between atoms: _94  and  _97
REMARK   42  A    between atoms: _100  and  _102
REMARK   43  A    between atoms: _102  and  _103
REMARK   44  A    between atoms: _102  and  _105
REMARK   45  A    between atoms: _105  and  _106
REMARK   46  A    between atoms: _106  and  _107
REMARK   47  A    between atoms: _107  and  _108
REMARK   48  A    between atoms: _108  and  _109
REMARK   49  A    between atoms: _113  and  _115
REMARK   50  A    between atoms: _115  and  _116
REMARK   51  A    between atoms: _115  and  _118
REMARK   52  A    between atoms: _118  and  _119
REMARK   53  A    between atoms: _122  and  _124
REMARK   54  A    between atoms: _124  and  _125
REMARK   55  A    between atoms: _127  and  _129
REMARK   56  A    between atoms: _129  and  _130
REMARK   57  A    between atoms: _132  and  _134
REMARK   58  A    between atoms: _134  and  _135
REMARK   59  A    between atoms: _134  and  _137
REMARK   60  A    between atoms: _137  and  _138
REMARK   61  A    between atoms: _141  and  _143
REMARK   62  A    between atoms: _143  and  _144
REMARK   63  A    between atoms: _146  and  _148
REMARK   64  A    between atoms: _148  and  _149
REMARK   65  A    between atoms: _151  and  _153
REMARK   66  A    between atoms: _153  and  _154
REMARK   67  A    between atoms: _153  and  _156
REMARK   68  A    between atoms: _156  and  _157
REMARK   69  A    between atoms: _163  and  _165
REMARK   70  A    between atoms: _165  and  _166
REMARK   71  A    between atoms: _165  and  _168
REMARK   72  A    between atoms: _168  and  _169
REMARK   73  A    between atoms: _173  and  _174
REMARK   74  A    between atoms: _179  and  _181
REMARK   75  A    between atoms: _181  and  _182
REMARK   76  A    between atoms: _181  and  _184
REMARK   77  A    between atoms: _187  and  _189
REMARK   78  A    between atoms: _189  and  _190
REMARK   79  A    between atoms: _189  and  _192
REMARK   80  A    between atoms: _192  and  _193
REMARK   81  A    between atoms: _198  and  _200
REMARK   82  A    between atoms: _200  and  _201
REMARK   83  A    between atoms: _200  and  _203
REMARK   84  A    between atoms: _203  and  _204
REMARK   85  A    between atoms: _207  and  _209
REMARK   86  A    between atoms: _209  and  _210
REMARK   87  A    between atoms: _209  and  _212
REMARK   88  A    between atoms: _212  and  _213
REMARK   89  A    between atoms: _216  and  _218
REMARK   90  A    between atoms: _218  and  _219
REMARK   91  A    between atoms: _221  and  _223
REMARK   92  A    between atoms: _223  and  _224
REMARK   93  A    between atoms: _223  and  _226
REMARK   94  A    between atoms: _226  and  _227
REMARK   95  A    between atoms: _227  and  _228
REMARK   96  A    between atoms: _228  and  _229
REMARK   97  A    between atoms: _238  and  _240
REMARK   98  A    between atoms: _240  and  _241
REMARK   99  A    between atoms: _240  and  _243
REMARK  100  A    between atoms: _243  and  _244
REMARK  101  A    between atoms: _244  and  _245
REMARK  102  A    between atoms: _245  and  _246
REMARK  103  A    between atoms: _255  and  _257
REMARK  104  A    between atoms: _257  and  _258
REMARK  105  A    between atoms: _257  and  _260
REMARK  106  A    between atoms: _260  and  _261
REMARK  107  A    between atoms: _264  and  _266
REMARK  108  A    between atoms: _266  and  _267
REMARK  109  A    between atoms: _266  and  _269
REMARK  110  A    between atoms: _269  and  _270
REMARK  111  A    between atoms: _273  and  _275
REMARK  112  A    between atoms: _275  and  _276
REMARK  113  A    between atoms: _275  and  _278
REMARK  114  A    between atoms: _278  and  _279
REMARK  115  A    between atoms: _282  and  _284
REMARK  116  A    between atoms: _284  and  _285
REMARK  117  A    between atoms: _284  and  _287
REMARK  118  A    between atoms: _287  and  _288
REMARK  119  A    between atoms: _291  and  _293
REMARK  120  A    between atoms: _293  and  _294
REMARK  121  A    between atoms: _296  and  _298
REMARK  122  A    between atoms: _298  and  _299
REMARK  123  A    between atoms: _302  and  _304
REMARK  124  A    between atoms: _304  and  _305
REMARK  125  A    between atoms: _304  and  _307
REMARK  126  A    between atoms: _307  and  _308
REMARK  127  A    between atoms: _311  and  _313
REMARK  128  A    between atoms: _313  and  _314
REMARK  129  A    between atoms: _313  and  _316
REMARK  130  A    between atoms: _316  and  _317
REMARK  131  A    between atoms: _320  and  _322
REMARK  132  A    between atoms: _322  and  _323
REMARK  133  A    between atoms: _322  and  _325
REMARK  134  A    between atoms: _325  and  _326
REMARK  135  A    between atoms: _329  and  _331
REMARK  136  A    between atoms: _331  and  _332
REMARK  137  A    between atoms: _331  and  _334
REMARK  138  A    between atoms: _337  and  _339
REMARK  139  A    between atoms: _339  and  _340
REMARK  140  A    between atoms: _339  and  _342
REMARK  141  A    between atoms: _342  and  _343
REMARK  142  A    between atoms: _343  and  _344
REMARK  143  A    between atoms: _344  and  _345
REMARK  144  A    between atoms: _345  and  _346
REMARK  145  A    between atoms: _350  and  _352
REMARK  146  A    between atoms: _352  and  _353
REMARK  147  A    between atoms: _352  and  _355
REMARK  148  A    between atoms: _355  and  _356
REMARK  149  A    between atoms: _356  and  _357
REMARK  150  A    between atoms: _359  and  _361
REMARK  151  A    between atoms: _361  and  _362
REMARK  152  A    between atoms: _361  and  _364
REMARK  153  A    between atoms: _364  and  _365
REMARK  154  A    between atoms: _368  and  _370
REMARK  155  A    between atoms: _370  and  _371
REMARK  156  A    between atoms: _373  and  _375
REMARK  157  A    between atoms: _375  and  _376
REMARK  158  A    between atoms: _378  and  _380
REMARK  159  A    between atoms: _380  and  _381
REMARK  160  A    between atoms: _380  and  _383
REMARK  161  A    between atoms: _383  and  _384
REMARK  162  A    between atoms: _387  and  _389
REMARK  163  A    between atoms: _389  and  _390
REMARK  164  A    between atoms: _392  and  _394
REMARK  165  A    between atoms: _394  and  _395
REMARK  166  A    between atoms: _397  and  _399
REMARK  167  A    between atoms: _399  and  _400
REMARK  168  A    between atoms: _399  and  _402
REMARK  169  A    between atoms: _402  and  _403
REMARK  170  A    between atoms: _409  and  _411
REMARK  171  A    between atoms: _411  and  _412
REMARK  172  A    between atoms: _411  and  _414
REMARK  173  A    between atoms: _414  and  _415
REMARK  174  A    between atoms: _418  and  _420
REMARK  175  A    between atoms: _420  and  _421
REMARK  176  A    between atoms: _420  and  _423
REMARK  177  A    between atoms: _426  and  _428
REMARK  178  A    between atoms: _428  and  _429
REMARK  179  A    between atoms: _428  and  _431
REMARK  180  A    between atoms: _431  and  _432
REMARK  181  A    between atoms: _436  and  _437
REMARK  182  A    between atoms: _442  and  _444
REMARK  183  A    between atoms: _444  and  _445
REMARK  184  A    between atoms: _444  and  _447
REMARK  185  A    between atoms: _447  and  _448
REMARK  186  A    between atoms: _452  and  _453
REMARK  187  A    between atoms: _458  and  _460
REMARK  188  A    between atoms: _460  and  _461
REMARK  189  A    between atoms: _460  and  _463
REMARK  190  A    between atoms: _466  and  _468
REMARK  191  A    between atoms: _468  and  _469
REMARK  192  A    between atoms: _468  and  _471
REMARK  193  A    between atoms: _471  and  _472
REMARK  194  A    between atoms: _477  and  _479
REMARK  195  A    between atoms: _479  and  _480
REMARK  196  A    between atoms: _479  and  _482
REMARK  197  A    between atoms: _482  and  _483
REMARK  198  A    between atoms: _486  and  _488
REMARK  199  A    between atoms: _488  and  _489
REMARK  200  A    between atoms: _488  and  _491
REMARK  201  A    between atoms: _491  and  _492
REMARK  202  A    between atoms: _495  and  _497
REMARK  203  A    between atoms: _497  and  _498
REMARK  204  A    between atoms: _500  and  _502
REMARK  205  A    between atoms: _502  and  _503
REMARK  206  A    between atoms: _502  and  _505
REMARK  207  A    between atoms: _505  and  _506
REMARK  208  A    between atoms: _506  and  _507
REMARK  209  A    between atoms: _507  and  _508
REMARK  210  A    between atoms: _517  and  _519
REMARK  211  A    between atoms: _519  and  _520
REMARK  212  A    between atoms: _519  and  _522
REMARK  213  A    between atoms: _522  and  _523
REMARK                            x       y       z     vdW  Elec       q    Type
REMARK                         _______ _______ _______ _____ _____    ______ ____
ROOT
ATOM      1  O   HOH     1      22.512  18.594   9.585  0.00  0.00    +0.000 OA
ENDROOT
TORSDOF 0
REMARK  Name = ../refined-set-2016/3gi5/3gi5_pocket.pdb
REMARK  213 active torsions:
REMARK  status: ('A' for Active; 'I' for Inactive)
REMARK    1  A    between atoms: _1  and  _3
REMARK    2  A    between atoms: _3  and  _4
REMARK    3  A    between atoms: _3  and  _6
REMARK    4  A    between atoms: _6  and  _7
REMARK    5  A    between atoms: _7  and  _8
REMARK    6  A    between atoms: _8  and  _9
REMARK    7  A    between atoms: _18  and  _20
REMARK    8  A    between atoms: _20  and  _21
REMARK    9  A    between atoms: _20  and  _23
REMARK   10  A    between atoms: _23  and  _24
REMARK   11  A    between atoms: _27  and  _29
REMARK   12  A    between atoms: _29  and  _30
REMARK   13  A    between atoms: _29  and  _32
REMARK   14  A    between atoms: _32  and  _33
REMARK   15  A    between atoms: _36  and  _38
REMARK   16  A    between atoms: _38  and  _39
REMARK   17  A    between atoms: _38  and  _41
REMARK   18  A    between atoms: _41  and  _42
REMARK   19  A    between atoms: _45  and  _47
REMARK   20  A    between atoms: _47  and  _48
REMARK   21  A    between atoms: _47  and  _50
REMARK   22  A    between atoms: _50  and  _51
REMARK   23  A    between atoms: _54  and  _56
REMARK   24  A    between atoms: _56  and  _57
REMARK   25  A    between atoms: _59  and  _61
REMARK   26  A    between atoms: _61  and  _62
REMARK   27  A    between atoms: _65  and  _67
REMARK   28  A    between atoms: _67  and  _68
REMARK   29  A    between atoms: _67  and  _70
REMARK   30  A    between atoms: _70  and  _71
REMARK   31  A    between atoms: _74  and  _76
REMARK   32  A    between atoms: _76  and  _77
REMARK   33  A    between atoms: _76  and  _79
REMARK   34  A    between atoms: _79  and  _80
REMARK   35  A    between atoms: _83  and  _85
REMARK   36  A    between atoms: _85  and  _86
REMARK   37  A    between atoms: _85  and  _88
REMARK   38  A    between atoms: _88  and  _89
REMARK   39  A    between atoms: _92  and  _94
REMARK   40  A    between atoms: _94  and  _95
REMARK   41  A    between atoms: _94  and  _97
REMARK   42  A    between atoms: _100  and  _102
REMARK   43  A    between atoms: _102  and  _103
REMARK   44  A    between atoms: _102  and  _105
REMARK   45  A    between atoms: _105  and  _106
REMARK   46  A    between atoms: _106  and  _107
REMARK   47  A    between atoms: _107  and  _108
REMARK   48  A    between atoms: _108  and  _109
REMARK   49  A    between atoms: _113  and  _115
REMARK   50  A    between atoms: _115  and  _116
REMARK   51  A    between atoms: _115  and  _118
REMARK   52  A    between atoms: _118  and  _119
REMARK   53  A    between atoms: _122  and  _124
REMARK   54  A    between atoms: _124  and  _125
REMARK   55  A    between atoms: _127  and  _129
REMARK   56  A    between atoms: _129  and  _130
REMARK   57  A    between atoms: _132  and  _134
REMARK   58  A    between atoms: _134  and  _135
REMARK   59  A    between atoms: _134  and  _137
REMARK   60  A    between atoms: _137  and  _138
REMARK   61  A    between atoms: _141  and  _143
REMARK   62  A    between atoms: _143  and  _144
REMARK   63  A    between atoms: _146  and  _148
REMARK   64  A    between atoms: _148  and  _149
REMARK   65  A    between atoms: _151  and  _153
REMARK   66  A    between atoms: _153  and  _154
REMARK   67  A    between atoms: _153  and  _156
REMARK   68  A    between atoms: _156  and  _157
REMARK   69  A    between atoms: _163  and  _165
REMARK   70  A    between atoms: _165  and  _166
REMARK   71  A    between atoms: _165  and  _168
REMARK   72  A    between atoms: _168  and  _169
REMARK   73  A    between atoms: _173  and  _174
REMARK   74  A    between atoms: _179  and  _181
REMARK   75  A    between atoms: _181  and  _182
REMARK   76  A    between atoms: _181  and  _184
REMARK   77  A    between atoms: _187  and  _189
REMARK   78  A    between atoms: _189  and  _190
REMARK   79  A    between atoms: _189  and  _192
REMARK   80  A    between atoms: _192  and  _193
REMARK   81  A    between atoms: _198  and  _200
REMARK   82  A    between atoms: _200  and  _201
REMARK   83  A    between atoms: _200  and  _203
REMARK   84  A    between atoms: _203  and  _204
REMARK   85  A    between atoms: _207  and  _209
REMARK   86  A    between atoms: _209  and  _210
REMARK   87  A    between atoms: _209  and  _212
REMARK   88  A    between atoms: _212  and  _213
REMARK   89  A    between atoms: _216  and  _218
REMARK   90  A    between atoms: _218  and  _219
REMARK   91  A    between atoms: _221  and  _223
REMARK   92  A    between atoms: _223  and  _224
REMARK   93  A    between atoms: _223  and  _226
REMARK   94  A    between atoms: _226  and  _227
REMARK   95  A    between atoms: _227  and  _228
REMARK   96  A    between atoms: _228  and  _229
REMARK   97  A    between atoms: _238  and  _240
REMARK   98  A    between atoms: _240  and  _241
REMARK   99  A    between atoms: _240  and  _243
REMARK  100  A    between atoms: _243  and  _244
REMARK  101  A    between atoms: _244  and  _245
REMARK  102  A    between atoms: _245  and  _246
REMARK  103  A    between atoms: _255  and  _257
REMARK  104  A    between atoms: _257  and  _258
REMARK  105  A    between atoms: _257  and  _260
REMARK  106  A    between atoms: _260  and  _261
REMARK  107  A    between atoms: _264  and  _266
REMARK  108  A    between atoms: _266  and  _267
REMARK  109  A    between atoms: _266  and  _269
REMARK  110  A    between atoms: _269  and  _270
REMARK  111  A    between atoms: _273  and  _275
REMARK  112  A    between atoms: _275  and  _276
REMARK  113  A    between atoms: _275  and  _278
REMARK  114  A    between atoms: _278  and  _279
REMARK  115  A    between atoms: _282  and  _284
REMARK  116  A    between atoms: _284  and  _285
REMARK  117  A    between atoms: _284  and  _287
REMARK  118  A    between atoms: _287  and  _288
REMARK  119  A    between atoms: _291  and  _293
REMARK  120  A    between atoms: _293  and  _294
REMARK  121  A    between atoms: _296  and  _298
REMARK  122  A    between atoms: _298  and  _299
REMARK  123  A    between atoms: _302  and  _304
REMARK  124  A    between atoms: _304  and  _305
REMARK  125  A    between atoms: _304  and  _307
REMARK  126  A    between atoms: _307  and  _308
REMARK  127  A    between atoms: _311  and  _313
REMARK  128  A    between atoms: _313  and  _314
REMARK  129  A    between atoms: _313  and  _316
REMARK  130  A    between atoms: _316  and  _317
REMARK  131  A    between atoms: _320  and  _322
REMARK  132  A    between atoms: _322  and  _323
REMARK  133  A    between atoms: _322  and  _325
REMARK  134  A    between atoms: _325  and  _326
REMARK  135  A    between atoms: _329  and  _331
REMARK  136  A    between atoms: _331  and  _332
REMARK  137  A    between atoms: _331  and  _334
REMARK  138  A    between atoms: _337  and  _339
REMARK  139  A    between atoms: _339  and  _340
REMARK  140  A    between atoms: _339  and  _342
REMARK  141  A    between atoms: _342  and  _343
REMARK  142  A    between atoms: _343  and  _344
REMARK  143  A    between atoms: _344  and  _345
REMARK  144  A    between atoms: _345  and  _346
REMARK  145  A    between atoms: _350  and  _352
REMARK  146  A    between atoms: _352  and  _353
REMARK  147  A    between atoms: _352  and  _355
REMARK  148  A    between atoms: _355  and  _356
REMARK  149  A    between atoms: _356  and  _357
REMARK  150  A    between atoms: _359  and  _361
REMARK  151  A    between atoms: _361  and  _362
REMARK  152  A    between atoms: _361  and  _364
REMARK  153  A    between atoms: _364  and  _365
REMARK  154  A    between atoms: _368  and  _370
REMARK  155  A    between atoms: _370  and  _371
REMARK  156  A    between atoms: _373  and  _375
REMARK  157  A    between atoms: _375  and  _376
REMARK  158  A    between atoms: _378  and  _380
REMARK  159  A    between atoms: _380  and  _381
REMARK  160  A    between atoms: _380  and  _383
REMARK  161  A    between atoms: _383  and  _384
REMARK  162  A    between atoms: _387  and  _389
REMARK  163  A    between atoms: _389  and  _390
REMARK  164  A    between atoms: _392  and  _394
REMARK  165  A    between atoms: _394  and  _395
REMARK  166  A    between atoms: _397  and  _399
REMARK  167  A    between atoms: _399  and  _400
REMARK  168  A    between atoms: _399  and  _402
REMARK  169  A    between atoms: _402  and  _403
REMARK  170  A    between atoms: _409  and  _411
REMARK  171  A    between atoms: _411  and  _412
REMARK  172  A    between atoms: _411  and  _414
REMARK  173  A    between atoms: _414  and  _415
REMARK  174  A    between atoms: _418  and  _420
REMARK  175  A    between atoms: _420  and  _421
REMARK  176  A    between atoms: _420  and  _423
REMARK  177  A    between atoms: _426  and  _428
REMARK  178  A    between atoms: _428  and  _429
REMARK  179  A    between atoms: _428  and  _431
REMARK  180  A    between atoms: _431  and  _432
REMARK  181  A    between atoms: _436  and  _437
REMARK  182  A    between atoms: _442  and  _444
REMARK  183  A    between atoms: _444  and  _445
REMARK  184  A    between atoms: _444  and  _447
REMARK  185  A    between atoms: _447  and  _448
REMARK  186  A    between atoms: _452  and  _453
REMARK  187  A    between atoms: _458  and  _460
REMARK  188  A    between atoms: _460  and  _461
REMARK  189  A    between atoms: _460  and  _463
REMARK  190  A    between atoms: _466  and  _468
REMARK  191  A    between atoms: _468  and  _469
REMARK  192  A    between atoms: _468  and  _471
REMARK  193  A    between atoms: _471  and  _472
REMARK  194  A    between atoms: _477  and  _479
REMARK  195  A    between atoms: _479  and  _480
REMARK  196  A    between atoms: _479  and  _482
REMARK  197  A    between atoms: _482  and  _483
REMARK  198  A    between atoms: _486  and  _488
REMARK  199  A    between atoms: _488  and  _489
REMARK  200  A    between atoms: _488  and  _491
REMARK  201  A    between atoms: _491  and  _492
REMARK  202  A    between atoms: _495  and  _497
REMARK  203  A    between atoms: _497  and  _498
REMARK  204  A    between atoms: _500  and  _502
REMARK  205  A    between atoms: _502  and  _503
REMARK  206  A    between atoms: _502  and  _505
REMARK  207  A    between atoms: _505  and  _506
REMARK  208  A    between atoms: _506  and  _507
REMARK  209  A    between atoms: _507  and  _508
REMARK  210  A    between atoms: _517  and  _519
REMARK  211  A    between atoms: _519  and  _520
REMARK  212  A    between atoms: _519  and  _522
REMARK  213  A    between atoms: _522  and  _523
REMARK                            x       y       z     vdW  Elec       q    Type
REMARK                         _______ _______ _______ _____ _____    ______ ____
ROOT
ATOM      1  O   HOH     1      25.175  18.501  10.326  0.00  0.00    +0.000 OA
ENDROOT
TORSDOF 0
REMARK  Name = ../refined-set-2016/3gi5/3gi5_pocket.pdb
REMARK  213 active torsions:
REMARK  status: ('A' for Active; 'I' for Inactive)
REMARK    1  A    between atoms: _1  and  _3
REMARK    2  A    between atoms: _3  and  _4
REMARK    3  A    between atoms: _3  and  _6
REMARK    4  A    between atoms: _6  and  _7
REMARK    5  A    between atoms: _7  and  _8
REMARK    6  A    between atoms: _8  and  _9
REMARK    7  A    between atoms: _18  and  _20
REMARK    8  A    between atoms: _20  and  _21
REMARK    9  A    between atoms: _20  and  _23
REMARK   10  A    between atoms: _23  and  _24
REMARK   11  A    between atoms: _27  and  _29
REMARK   12  A    between atoms: _29  and  _30
REMARK   13  A    between atoms: _29  and  _32
REMARK   14  A    between atoms: _32  and  _33
REMARK   15  A    between atoms: _36  and  _38
REMARK   16  A    between atoms: _38  and  _39
REMARK   17  A    between atoms: _38  and  _41
REMARK   18  A    between atoms: _41  and  _42
REMARK   19  A    between atoms: _45  and  _47
REMARK   20  A    between atoms: _47  and  _48
REMARK   21  A    between atoms: _47  and  _50
REMARK   22  A    between atoms: _50  and  _51
REMARK   23  A    between atoms: _54  and  _56
REMARK   24  A    between atoms: _56  and  _57
REMARK   25  A    between atoms: _59  and  _61
REMARK   26  A    between atoms: _61  and  _62
REMARK   27  A    between atoms: _65  and  _67
REMARK   28  A    between atoms: _67  and  _68
REMARK   29  A    between atoms: _67  and  _70
REMARK   30  A    between atoms: _70  and  _71
REMARK   31  A    between atoms: _74  and  _76
REMARK   32  A    between atoms: _76  and  _77
REMARK   33  A    between atoms: _76  and  _79
REMARK   34  A    between atoms: _79  and  _80
REMARK   35  A    between atoms: _83  and  _85
REMARK   36  A    between atoms: _85  and  _86
REMARK   37  A    between atoms: _85  and  _88
REMARK   38  A    between atoms: _88  and  _89
REMARK   39  A    between atoms: _92  and  _94
REMARK   40  A    between atoms: _94  and  _95
REMARK   41  A    between atoms: _94  and  _97
REMARK   42  A    between atoms: _100  and  _102
REMARK   43  A    between atoms: _102  and  _103
REMARK   44  A    between atoms: _102  and  _105
REMARK   45  A    between atoms: _105  and  _106
REMARK   46  A    between atoms: _106  and  _107
REMARK   47  A    between atoms: _107  and  _108
REMARK   48  A    between atoms: _108  and  _109
REMARK   49  A    between atoms: _113  and  _115
REMARK   50  A    between atoms: _115  and  _116
REMARK   51  A    between atoms: _115  and  _118
REMARK   52  A    between atoms: _118  and  _119
REMARK   53  A    between atoms: _122  and  _124
REMARK   54  A    between atoms: _124  and  _125
REMARK   55  A    between atoms: _127  and  _129
REMARK   56  A    between atoms: _129  and  _130
REMARK   57  A    between atoms: _132  and  _134
REMARK   58  A    between atoms: _134  and  _135
REMARK   59  A    between atoms: _134  and  _137
REMARK   60  A    between atoms: _137  and  _138
REMARK   61  A    between atoms: _141  and  _143
REMARK   62  A    between atoms: _143  and  _144
REMARK   63  A    between atoms: _146  and  _148
REMARK   64  A    between atoms: _148  and  _149
REMARK   65  A    between atoms: _151  and  _153
REMARK   66  A    between atoms: _153  and  _154
REMARK   67  A    between atoms: _153  and  _156
REMARK   68  A    between atoms: _156  and  _157
REMARK   69  A    between atoms: _163  and  _165
REMARK   70  A    between atoms: _165  and  _166
REMARK   71  A    between atoms: _165  and  _168
REMARK   72  A    between atoms: _168  and  _169
REMARK   73  A    between atoms: _173  and  _174
REMARK   74  A    between atoms: _179  and  _181
REMARK   75  A    between atoms: _181  and  _182
REMARK   76  A    between atoms: _181  and  _184
REMARK   77  A    between atoms: _187  and  _189
REMARK   78  A    between atoms: _189  and  _190
REMARK   79  A    between atoms: _189  and  _192
REMARK   80  A    between atoms: _192  and  _193
REMARK   81  A    between atoms: _198  and  _200
REMARK   82  A    between atoms: _200  and  _201
REMARK   83  A    between atoms: _200  and  _203
REMARK   84  A    between atoms: _203  and  _204
REMARK   85  A    between atoms: _207  and  _209
REMARK   86  A    between atoms: _209  and  _210
REMARK   87  A    between atoms: _209  and  _212
REMARK   88  A    between atoms: _212  and  _213
REMARK   89  A    between atoms: _216  and  _218
REMARK   90  A    between atoms: _218  and  _219
REMARK   91  A    between atoms: _221  and  _223
REMARK   92  A    between atoms: _223  and  _224
REMARK   93  A    between atoms: _223  and  _226
REMARK   94  A    between atoms: _226  and  _227
REMARK   95  A    between atoms: _227  and  _228
REMARK   96  A    between atoms: _228  and  _229
REMARK   97  A    between atoms: _238  and  _240
REMARK   98  A    between atoms: _240  and  _241
REMARK   99  A    between atoms: _240  and  _243
REMARK  100  A    between atoms: _243  and  _244
REMARK  101  A    between atoms: _244  and  _245
REMARK  102  A    between atoms: _245  and  _246
REMARK  103  A    between atoms: _255  and  _257
REMARK  104  A    between atoms: _257  and  _258
REMARK  105  A    between atoms: _257  and  _260
REMARK  106  A    between atoms: _260  and  _261
REMARK  107  A    between atoms: _264  and  _266
REMARK  108  A    between atoms: _266  and  _267
REMARK  109  A    between atoms: _266  and  _269
REMARK  110  A    between atoms: _269  and  _270
REMARK  111  A    between atoms: _273  and  _275
REMARK  112  A    between atoms: _275  and  _276
REMARK  113  A    between atoms: _275  and  _278
REMARK  114  A    between atoms: _278  and  _279
REMARK  115  A    between atoms: _282  and  _284
REMARK  116  A    between atoms: _284  and  _285
REMARK  117  A    between atoms: _284  and  _287
REMARK  118  A    between atoms: _287  and  _288
REMARK  119  A    between atoms: _291  and  _293
REMARK  120  A    between atoms: _293  and  _294
REMARK  121  A    between atoms: _296  and  _298
REMARK  122  A    between atoms: _298  and  _299
REMARK  123  A    between atoms: _302  and  _304
REMARK  124  A    between atoms: _304  and  _305
REMARK  125  A    between atoms: _304  and  _307
REMARK  126  A    between atoms: _307  and  _308
REMARK  127  A    between atoms: _311  and  _313
REMARK  128  A    between atoms: _313  and  _314
REMARK  129  A    between atoms: _313  and  _316
REMARK  130  A    between atoms: _316  and  _317
REMARK  131  A    between atoms: _320  and  _322
REMARK  132  A    between atoms: _322  and  _323
REMARK  133  A    between atoms: _322  and  _325
REMARK  134  A    between atoms: _325  and  _326
REMARK  135  A    between atoms: _329  and  _331
REMARK  136  A    between atoms: _331  and  _332
REMARK  137  A    between atoms: _331  and  _334
REMARK  138  A    between atoms: _337  and  _339
REMARK  139  A    between atoms: _339  and  _340
REMARK  140  A    between atoms: _339  and  _342
REMARK  141  A    between atoms: _342  and  _343
REMARK  142  A    between atoms: _343  and  _344
REMARK  143  A    between atoms: _344  and  _345
REMARK  144  A    between atoms: _345  and  _346
REMARK  145  A    between atoms: _350  and  _352
REMARK  146  A    between atoms: _352  and  _353
REMARK  147  A    between atoms: _352  and  _355
REMARK  148  A    between atoms: _355  and  _356
REMARK  149  A    between atoms: _356  and  _357
REMARK  150  A    between atoms: _359  and  _361
REMARK  151  A    between atoms: _361  and  _362
REMARK  152  A    between atoms: _361  and  _364
REMARK  153  A    between atoms: _364  and  _365
REMARK  154  A    between atoms: _368  and  _370
REMARK  155  A    between atoms: _370  and  _371
REMARK  156  A    between atoms: _373  and  _375
REMARK  157  A    between atoms: _375  and  _376
REMARK  158  A    between atoms: _378  and  _380
REMARK  159  A    between atoms: _380  and  _381
REMARK  160  A    between atoms: _380  and  _383
REMARK  161  A    between atoms: _383  and  _384
REMARK  162  A    between atoms: _387  and  _389
REMARK  163  A    between atoms: _389  and  _390
REMARK  164  A    between atoms: _392  and  _394
REMARK  165  A    between atoms: _394  and  _395
REMARK  166  A    between atoms: _397  and  _399
REMARK  167  A    between atoms: _399  and  _400
REMARK  168  A    between atoms: _399  and  _402
REMARK  169  A    between atoms: _402  and  _403
REMARK  170  A    between atoms: _409  and  _411
REMARK  171  A    between atoms: _411  and  _412
REMARK  172  A    between atoms: _411  and  _414
REMARK  173  A    between atoms: _414  and  _415
REMARK  174  A    between atoms: _418  and  _420
REMARK  175  A    between atoms: _420  and  _421
REMARK  176  A    between atoms: _420  and  _423
REMARK  177  A    between atoms: _426  and  _428
REMARK  178  A    between atoms: _428  and  _429
REMARK  179  A    between atoms: _428  and  _431
REMARK  180  A    between atoms: _431  and  _432
REMARK  181  A    between atoms: _436  and  _437
REMARK  182  A    between atoms: _442  and  _444
REMARK  183  A    between atoms: _444  and  _445
REMARK  184  A    between atoms: _444  and  _447
REMARK  185  A    between atoms: _447  and  _448
REMARK  186  A    between atoms: _452  and  _453
REMARK  187  A    between atoms: _458  and  _460
REMARK  188  A    between atoms: _460  and  _461
REMARK  189  A    between atoms: _460  and  _463
REMARK  190  A    between atoms: _466  and  _468
REMARK  191  A    between atoms: _468  and  _469
REMARK  192  A    between atoms: _468  and  _471
REMARK  193  A    between atoms: _471  and  _472
REMARK  194  A    between atoms: _477  and  _479
REMARK  195  A    between atoms: _479  and  _480
REMARK  196  A    between atoms: _479  and  _482
REMARK  197  A    between atoms: _482  and  _483
REMARK  198  A    between atoms: _486  and  _488
REMARK  199  A    between atoms: _488  and  _489
REMARK  200  A    between atoms: _488  and  _491
REMARK  201  A    between atoms: _491  and  _492
REMARK  202  A    between atoms: _495  and  _497
REMARK  203  A    between atoms: _497  and  _498
REMARK  204  A    between atoms: _500  and  _502
REMARK  205  A    between atoms: _502  and  _503
REMARK  206  A    between atoms: _502  and  _505
REMARK  207  A    between atoms: _505  and  _506
REMARK  208  A    between atoms: _506  and  _507
REMARK  209  A    between atoms: _507  and  _508
REMARK  210  A    between atoms: _517  and  _519
REMARK  211  A    between atoms: _519  and  _520
REMARK  212  A    between atoms: _519  and  _522
REMARK  213  A    between atoms: _522  and  _523
REMARK                            x       y       z     vdW  Elec       q    Type
REMARK                         _______ _______ _______ _____ _____    ______ ____
ROOT
ATOM      1  O   HOH     1      23.566  25.761   5.368  0.00  0.00    +0.000 OA
ENDROOT
TORSDOF 0
REMARK  Name = ../refined-set-2016/3gi5/3gi5_pocket.pdb
REMARK  213 active torsions:
REMARK  status: ('A' for Active; 'I' for Inactive)
REMARK    1  A    between atoms: _1  and  _3
REMARK    2  A    between atoms: _3  and  _4
REMARK    3  A    between atoms: _3  and  _6
REMARK    4  A    between atoms: _6  and  _7
REMARK    5  A    between atoms: _7  and  _8
REMARK    6  A    between atoms: _8  and  _9
REMARK    7  A    between atoms: _18  and  _20
REMARK    8  A    between atoms: _20  and  _21
REMARK    9  A    between atoms: _20  and  _23
REMARK   10  A    between atoms: _23  and  _24
REMARK   11  A    between atoms: _27  and  _29
REMARK   12  A    between atoms: _29  and  _30
REMARK   13  A    between atoms: _29  and  _32
REMARK   14  A    between atoms: _32  and  _33
REMARK   15  A    between atoms: _36  and  _38
REMARK   16  A    between atoms: _38  and  _39
REMARK   17  A    between atoms: _38  and  _41
REMARK   18  A    between atoms: _41  and  _42
REMARK   19  A    between atoms: _45  and  _47
REMARK   20  A    between atoms: _47  and  _48
REMARK   21  A    between atoms: _47  and  _50
REMARK   22  A    between atoms: _50  and  _51
REMARK   23  A    between atoms: _54  and  _56
REMARK   24  A    between atoms: _56  and  _57
REMARK   25  A    between atoms: _59  and  _61
REMARK   26  A    between atoms: _61  and  _62
REMARK   27  A    between atoms: _65  and  _67
REMARK   28  A    between atoms: _67  and  _68
REMARK   29  A    between atoms: _67  and  _70
REMARK   30  A    between atoms: _70  and  _71
REMARK   31  A    between atoms: _74  and  _76
REMARK   32  A    between atoms: _76  and  _77
REMARK   33  A    between atoms: _76  and  _79
REMARK   34  A    between atoms: _79  and  _80
REMARK   35  A    between atoms: _83  and  _85
REMARK   36  A    between atoms: _85  and  _86
REMARK   37  A    between atoms: _85  and  _88
REMARK   38  A    between atoms: _88  and  _89
REMARK   39  A    between atoms: _92  and  _94
REMARK   40  A    between atoms: _94  and  _95
REMARK   41  A    between atoms: _94  and  _97
REMARK   42  A    between atoms: _100  and  _102
REMARK   43  A    between atoms: _102  and  _103
REMARK   44  A    between atoms: _102  and  _105
REMARK   45  A    between atoms: _105  and  _106
REMARK   46  A    between atoms: _106  and  _107
REMARK   47  A    between atoms: _107  and  _108
REMARK   48  A    between atoms: _108  and  _109
REMARK   49  A    between atoms: _113  and  _115
REMARK   50  A    between atoms: _115  and  _116
REMARK   51  A    between atoms: _115  and  _118
REMARK   52  A    between atoms: _118  and  _119
REMARK   53  A    between atoms: _122  and  _124
REMARK   54  A    between atoms: _124  and  _125
REMARK   55  A    between atoms: _127  and  _129
REMARK   56  A    between atoms: _129  and  _130
REMARK   57  A    between atoms: _132  and  _134
REMARK   58  A    between atoms: _134  and  _135
REMARK   59  A    between atoms: _134  and  _137
REMARK   60  A    between atoms: _137  and  _138
REMARK   61  A    between atoms: _141  and  _143
REMARK   62  A    between atoms: _143  and  _144
REMARK   63  A    between atoms: _146  and  _148
REMARK   64  A    between atoms: _148  and  _149
REMARK   65  A    between atoms: _151  and  _153
REMARK   66  A    between atoms: _153  and  _154
REMARK   67  A    between atoms: _153  and  _156
REMARK   68  A    between atoms: _156  and  _157
REMARK   69  A    between atoms: _163  and  _165
REMARK   70  A    between atoms: _165  and  _166
REMARK   71  A    between atoms: _165  and  _168
REMARK   72  A    between atoms: _168  and  _169
REMARK   73  A    between atoms: _173  and  _174
REMARK   74  A    between atoms: _179  and  _181
REMARK   75  A    between atoms: _181  and  _182
REMARK   76  A    between atoms: _181  and  _184
REMARK   77  A    between atoms: _187  and  _189
REMARK   78  A    between atoms: _189  and  _190
REMARK   79  A    between atoms: _189  and  _192
REMARK   80  A    between atoms: _192  and  _193
REMARK   81  A    between atoms: _198  and  _200
REMARK   82  A    between atoms: _200  and  _201
REMARK   83  A    between atoms: _200  and  _203
REMARK   84  A    between atoms: _203  and  _204
REMARK   85  A    between atoms: _207  and  _209
REMARK   86  A    between atoms: _209  and  _210
REMARK   87  A    between atoms: _209  and  _212
REMARK   88  A    between atoms: _212  and  _213
REMARK   89  A    between atoms: _216  and  _218
REMARK   90  A    between atoms: _218  and  _219
REMARK   91  A    between atoms: _221  and  _223
REMARK   92  A    between atoms: _223  and  _224
REMARK   93  A    between atoms: _223  and  _226
REMARK   94  A    between atoms: _226  and  _227
REMARK   95  A    between atoms: _227  and  _228
REMARK   96  A    between atoms: _228  and  _229
REMARK   97  A    between atoms: _238  and  _240
REMARK   98  A    between atoms: _240  and  _241
REMARK   99  A    between atoms: _240  and  _243
REMARK  100  A    between atoms: _243  and  _244
REMARK  101  A    between atoms: _244  and  _245
REMARK  102  A    between atoms: _245  and  _246
REMARK  103  A    between atoms: _255  and  _257
REMARK  104  A    between atoms: _257  and  _258
REMARK  105  A    between atoms: _257  and  _260
REMARK  106  A    between atoms: _260  and  _261
REMARK  107  A    between atoms: _264  and  _266
REMARK  108  A    between atoms: _266  and  _267
REMARK  109  A    between atoms: _266  and  _269
REMARK  110  A    between atoms: _269  and  _270
REMARK  111  A    between atoms: _273  and  _275
REMARK  112  A    between atoms: _275  and  _276
REMARK  113  A    between atoms: _275  and  _278
REMARK  114  A    between atoms: _278  and  _279
REMARK  115  A    between atoms: _282  and  _284
REMARK  116  A    between atoms: _284  and  _285
REMARK  117  A    between atoms: _284  and  _287
REMARK  118  A    between atoms: _287  and  _288
REMARK  119  A    between atoms: _291  and  _293
REMARK  120  A    between atoms: _293  and  _294
REMARK  121  A    between atoms: _296  and  _298
REMARK  122  A    between atoms: _298  and  _299
REMARK  123  A    between atoms: _302  and  _304
REMARK  124  A    between atoms: _304  and  _305
REMARK  125  A    between atoms: _304  and  _307
REMARK  126  A    between atoms: _307  and  _308
REMARK  127  A    between atoms: _311  and  _313
REMARK  128  A    between atoms: _313  and  _314
REMARK  129  A    between atoms: _313  and  _316
REMARK  130  A    between atoms: _316  and  _317
REMARK  131  A    between atoms: _320  and  _322
REMARK  132  A    between atoms: _322  and  _323
REMARK  133  A    between atoms: _322  and  _325
REMARK  134  A    between atoms: _325  and  _326
REMARK  135  A    between atoms: _329  and  _331
REMARK  136  A    between atoms: _331  and  _332
REMARK  137  A    between atoms: _331  and  _334
REMARK  138  A    between atoms: _337  and  _339
REMARK  139  A    between atoms: _339  and  _340
REMARK  140  A    between atoms: _339  and  _342
REMARK  141  A    between atoms: _342  and  _343
REMARK  142  A    between atoms: _343  and  _344
REMARK  143  A    between atoms: _344  and  _345
REMARK  144  A    between atoms: _345  and  _346
REMARK  145  A    between atoms: _350  and  _352
REMARK  146  A    between atoms: _352  and  _353
REMARK  147  A    between atoms: _352  and  _355
REMARK  148  A    between atoms: _355  and  _356
REMARK  149  A    between atoms: _356  and  _357
REMARK  150  A    between atoms: _359  and  _361
REMARK  151  A    between atoms: _361  and  _362
REMARK  152  A    between atoms: _361  and  _364
REMARK  153  A    between atoms: _364  and  _365
REMARK  154  A    between atoms: _368  and  _370
REMARK  155  A    between atoms: _370  and  _371
REMARK  156  A    between atoms: _373  and  _375
REMARK  157  A    between atoms: _375  and  _376
REMARK  158  A    between atoms: _378  and  _380
REMARK  159  A    between atoms: _380  and  _381
REMARK  160  A    between atoms: _380  and  _383
REMARK  161  A    between atoms: _383  and  _384
REMARK  162  A    between atoms: _387  and  _389
REMARK  163  A    between atoms: _389  and  _390
REMARK  164  A    between atoms: _392  and  _394
REMARK  165  A    between atoms: _394  and  _395
REMARK  166  A    between atoms: _397  and  _399
REMARK  167  A    between atoms: _399  and  _400
REMARK  168  A    between atoms: _399  and  _402
REMARK  169  A    between atoms: _402  and  _403
REMARK  170  A    between atoms: _409  and  _411
REMARK  171  A    between atoms: _411  and  _412
REMARK  172  A    between atoms: _411  and  _414
REMARK  173  A    between atoms: _414  and  _415
REMARK  174  A    between atoms: _418  and  _420
REMARK  175  A    between atoms: _420  and  _421
REMARK  176  A    between atoms: _420  and  _423
REMARK  177  A    between atoms: _426  and  _428
REMARK  178  A    between atoms: _428  and  _429
REMARK  179  A    between atoms: _428  and  _431
REMARK  180  A    between atoms: _431  and  _432
REMARK  181  A    between atoms: _436  and  _437
REMARK  182  A    between atoms: _442  and  _444
REMARK  183  A    between atoms: _444  and  _445
REMARK  184  A    between atoms: _444  and  _447
REMARK  185  A    between atoms: _447  and  _448
REMARK  186  A    between atoms: _452  and  _453
REMARK  187  A    between atoms: _458  and  _460
REMARK  188  A    between atoms: _460  and  _461
REMARK  189  A    between atoms: _460  and  _463
REMARK  190  A    between atoms: _466  and  _468
REMARK  191  A    between atoms: _468  and  _469
REMARK  192  A    between atoms: _468  and  _471
REMARK  193  A    between atoms: _471  and  _472
REMARK  194  A    between atoms: _477  and  _479
REMARK  195  A    between atoms: _479  and  _480
REMARK  196  A    between atoms: _479  and  _482
REMARK  197  A    between atoms: _482  and  _483
REMARK  198  A    between atoms: _486  and  _488
REMARK  199  A    between atoms: _488  and  _489
REMARK  200  A    between atoms: _488  and  _491
REMARK  201  A    between atoms: _491  and  _492
REMARK  202  A    between atoms: _495  and  _497
REMARK  203  A    between atoms: _497  and  _498
REMARK  204  A    between atoms: _500  and  _502
REMARK  205  A    between atoms: _502  and  _503
REMARK  206  A    between atoms: _502  and  _505
REMARK  207  A    between atoms: _505  and  _506
REMARK  208  A    between atoms: _506  and  _507
REMARK  209  A    between atoms: _507  and  _508
REMARK  210  A    between atoms: _517  and  _519
REMARK  211  A    between atoms: _519  and  _520
REMARK  212  A    between atoms: _519  and  _522
REMARK  213  A    between atoms: _522  and  _523
REMARK                            x       y       z     vdW  Elec       q    Type
REMARK                         _______ _______ _______ _____ _____    ______ ____
ROOT
ATOM      1  O   HOH     1      14.119  32.488   6.898  0.00  0.00    +0.000 OA
ENDROOT
TORSDOF 0
REMARK  Name = ../refined-set-2016/3gi5/3gi5_pocket.pdb
REMARK  213 active torsions:
REMARK  status: ('A' for Active; 'I' for Inactive)
REMARK    1  A    between atoms: _1  and  _3
REMARK    2  A    between atoms: _3  and  _4
REMARK    3  A    between atoms: _3  and  _6
REMARK    4  A    between atoms: _6  and  _7
REMARK    5  A    between atoms: _7  and  _8
REMARK    6  A    between atoms: _8  and  _9
REMARK    7  A    between atoms: _18  and  _20
REMARK    8  A    between atoms: _20  and  _21
REMARK    9  A    between atoms: _20  and  _23
REMARK   10  A    between atoms: _23  and  _24
REMARK   11  A    between atoms: _27  and  _29
REMARK   12  A    between atoms: _29  and  _30
REMARK   13  A    between atoms: _29  and  _32
REMARK   14  A    between atoms: _32  and  _33
REMARK   15  A    between atoms: _36  and  _38
REMARK   16  A    between atoms: _38  and  _39
REMARK   17  A    between atoms: _38  and  _41
REMARK   18  A    between atoms: _41  and  _42
REMARK   19  A    between atoms: _45  and  _47
REMARK   20  A    between atoms: _47  and  _48
REMARK   21  A    between atoms: _47  and  _50
REMARK   22  A    between atoms: _50  and  _51
REMARK   23  A    between atoms: _54  and  _56
REMARK   24  A    between atoms: _56  and  _57
REMARK   25  A    between atoms: _59  and  _61
REMARK   26  A    between atoms: _61  and  _62
REMARK   27  A    between atoms: _65  and  _67
REMARK   28  A    between atoms: _67  and  _68
REMARK   29  A    between atoms: _67  and  _70
REMARK   30  A    between atoms: _70  and  _71
REMARK   31  A    between atoms: _74  and  _76
REMARK   32  A    between atoms: _76  and  _77
REMARK   33  A    between atoms: _76  and  _79
REMARK   34  A    between atoms: _79  and  _80
REMARK   35  A    between atoms: _83  and  _85
REMARK   36  A    between atoms: _85  and  _86
REMARK   37  A    between atoms: _85  and  _88
REMARK   38  A    between atoms: _88  and  _89
REMARK   39  A    between atoms: _92  and  _94
REMARK   40  A    between atoms: _94  and  _95
REMARK   41  A    between atoms: _94  and  _97
REMARK   42  A    between atoms: _100  and  _102
REMARK   43  A    between atoms: _102  and  _103
REMARK   44  A    between atoms: _102  and  _105
REMARK   45  A    between atoms: _105  and  _106
REMARK   46  A    between atoms: _106  and  _107
REMARK   47  A    between atoms: _107  and  _108
REMARK   48  A    between atoms: _108  and  _109
REMARK   49  A    between atoms: _113  and  _115
REMARK   50  A    between atoms: _115  and  _116
REMARK   51  A    between atoms: _115  and  _118
REMARK   52  A    between atoms: _118  and  _119
REMARK   53  A    between atoms: _122  and  _124
REMARK   54  A    between atoms: _124  and  _125
REMARK   55  A    between atoms: _127  and  _129
REMARK   56  A    between atoms: _129  and  _130
REMARK   57  A    between atoms: _132  and  _134
REMARK   58  A    between atoms: _134  and  _135
REMARK   59  A    between atoms: _134  and  _137
REMARK   60  A    between atoms: _137  and  _138
REMARK   61  A    between atoms: _141  and  _143
REMARK   62  A    between atoms: _143  and  _144
REMARK   63  A    between atoms: _146  and  _148
REMARK   64  A    between atoms: _148  and  _149
REMARK   65  A    between atoms: _151  and  _153
REMARK   66  A    between atoms: _153  and  _154
REMARK   67  A    between atoms: _153  and  _156
REMARK   68  A    between atoms: _156  and  _157
REMARK   69  A    between atoms: _163  and  _165
REMARK   70  A    between atoms: _165  and  _166
REMARK   71  A    between atoms: _165  and  _168
REMARK   72  A    between atoms: _168  and  _169
REMARK   73  A    between atoms: _173  and  _174
REMARK   74  A    between atoms: _179  and  _181
REMARK   75  A    between atoms: _181  and  _182
REMARK   76  A    between atoms: _181  and  _184
REMARK   77  A    between atoms: _187  and  _189
REMARK   78  A    between atoms: _189  and  _190
REMARK   79  A    between atoms: _189  and  _192
REMARK   80  A    between atoms: _192  and  _193
REMARK   81  A    between atoms: _198  and  _200
REMARK   82  A    between atoms: _200  and  _201
REMARK   83  A    between atoms: _200  and  _203
REMARK   84  A    between atoms: _203  and  _204
REMARK   85  A    between atoms: _207  and  _209
REMARK   86  A    between atoms: _209  and  _210
REMARK   87  A    between atoms: _209  and  _212
REMARK   88  A    between atoms: _212  and  _213
REMARK   89  A    between atoms: _216  and  _218
REMARK   90  A    between atoms: _218  and  _219
REMARK   91  A    between atoms: _221  and  _223
REMARK   92  A    between atoms: _223  and  _224
REMARK   93  A    between atoms: _223  and  _226
REMARK   94  A    between atoms: _226  and  _227
REMARK   95  A    between atoms: _227  and  _228
REMARK   96  A    between atoms: _228  and  _229
REMARK   97  A    between atoms: _238  and  _240
REMARK   98  A    between atoms: _240  and  _241
REMARK   99  A    between atoms: _240  and  _243
REMARK  100  A    between atoms: _243  and  _244
REMARK  101  A    between atoms: _244  and  _245
REMARK  102  A    between atoms: _245  and  _246
REMARK  103  A    between atoms: _255  and  _257
REMARK  104  A    between atoms: _257  and  _258
REMARK  105  A    between atoms: _257  and  _260
REMARK  106  A    between atoms: _260  and  _261
REMARK  107  A    between atoms: _264  and  _266
REMARK  108  A    between atoms: _266  and  _267
REMARK  109  A    between atoms: _266  and  _269
REMARK  110  A    between atoms: _269  and  _270
REMARK  111  A    between atoms: _273  and  _275
REMARK  112  A    between atoms: _275  and  _276
REMARK  113  A    between atoms: _275  and  _278
REMARK  114  A    between atoms: _278  and  _279
REMARK  115  A    between atoms: _282  and  _284
REMARK  116  A    between atoms: _284  and  _285
REMARK  117  A    between atoms: _284  and  _287
REMARK  118  A    between atoms: _287  and  _288
REMARK  119  A    between atoms: _291  and  _293
REMARK  120  A    between atoms: _293  and  _294
REMARK  121  A    between atoms: _296  and  _298
REMARK  122  A    between atoms: _298  and  _299
REMARK  123  A    between atoms: _302  and  _304
REMARK  124  A    between atoms: _304  and  _305
REMARK  125  A    between atoms: _304  and  _307
REMARK  126  A    between atoms: _307  and  _308
REMARK  127  A    between atoms: _311  and  _313
REMARK  128  A    between atoms: _313  and  _314
REMARK  129  A    between atoms: _313  and  _316
REMARK  130  A    between atoms: _316  and  _317
REMARK  131  A    between atoms: _320  and  _322
REMARK  132  A    between atoms: _322  and  _323
REMARK  133  A    between atoms: _322  and  _325
REMARK  134  A    between atoms: _325  and  _326
REMARK  135  A    between atoms: _329  and  _331
REMARK  136  A    between atoms: _331  and  _332
REMARK  137  A    between atoms: _331  and  _334
REMARK  138  A    between atoms: _337  and  _339
REMARK  139  A    between atoms: _339  and  _340
REMARK  140  A    between atoms: _339  and  _342
REMARK  141  A    between atoms: _342  and  _343
REMARK  142  A    between atoms: _343  and  _344
REMARK  143  A    between atoms: _344  and  _345
REMARK  144  A    between atoms: _345  and  _346
REMARK  145  A    between atoms: _350  and  _352
REMARK  146  A    between atoms: _352  and  _353
REMARK  147  A    between atoms: _352  and  _355
REMARK  148  A    between atoms: _355  and  _356
REMARK  149  A    between atoms: _356  and  _357
REMARK  150  A    between atoms: _359  and  _361
REMARK  151  A    between atoms: _361  and  _362
REMARK  152  A    between atoms: _361  and  _364
REMARK  153  A    between atoms: _364  and  _365
REMARK  154  A    between atoms: _368  and  _370
REMARK  155  A    between atoms: _370  and  _371
REMARK  156  A    between atoms: _373  and  _375
REMARK  157  A    between atoms: _375  and  _376
REMARK  158  A    between atoms: _378  and  _380
REMARK  159  A    between atoms: _380  and  _381
REMARK  160  A    between atoms: _380  and  _383
REMARK  161  A    between atoms: _383  and  _384
REMARK  162  A    between atoms: _387  and  _389
REMARK  163  A    between atoms: _389  and  _390
REMARK  164  A    between atoms: _392  and  _394
REMARK  165  A    between atoms: _394  and  _395
REMARK  166  A    between atoms: _397  and  _399
REMARK  167  A    between atoms: _399  and  _400
REMARK  168  A    between atoms: _399  and  _402
REMARK  169  A    between atoms: _402  and  _403
REMARK  170  A    between atoms: _409  and  _411
REMARK  171  A    between atoms: _411  and  _412
REMARK  172  A    between atoms: _411  and  _414
REMARK  173  A    between atoms: _414  and  _415
REMARK  174  A    between atoms: _418  and  _420
REMARK  175  A    between atoms: _420  and  _421
REMARK  176  A    between atoms: _420  and  _423
REMARK  177  A    between atoms: _426  and  _428
REMARK  178  A    between atoms: _428  and  _429
REMARK  179  A    between atoms: _428  and  _431
REMARK  180  A    between atoms: _431  and  _432
REMARK  181  A    between atoms: _436  and  _437
REMARK  182  A    between atoms: _442  and  _444
REMARK  183  A    between atoms: _444  and  _445
REMARK  184  A    between atoms: _444  and  _447
REMARK  185  A    between atoms: _447  and  _448
REMARK  186  A    between atoms: _452  and  _453
REMARK  187  A    between atoms: _458  and  _460
REMARK  188  A    between atoms: _460  and  _461
REMARK  189  A    between atoms: _460  and  _463
REMARK  190  A    between atoms: _466  and  _468
REMARK  191  A    between atoms: _468  and  _469
REMARK  192  A    between atoms: _468  and  _471
REMARK  193  A    between atoms: _471  and  _472
REMARK  194  A    between atoms: _477  and  _479
REMARK  195  A    between atoms: _479  and  _480
REMARK  196  A    between atoms: _479  and  _482
REMARK  197  A    between atoms: _482  and  _483
REMARK  198  A    between atoms: _486  and  _488
REMARK  199  A    between atoms: _488  and  _489
REMARK  200  A    between atoms: _488  and  _491
REMARK  201  A    between atoms: _491  and  _492
REMARK  202  A    between atoms: _495  and  _497
REMARK  203  A    between atoms: _497  and  _498
REMARK  204  A    between atoms: _500  and  _502
REMARK  205  A    between atoms: _502  and  _503
REMARK  206  A    between atoms: _502  and  _505
REMARK  207  A    between atoms: _505  and  _506
REMARK  208  A    between atoms: _506  and  _507
REMARK  209  A    between atoms: _507  and  _508
REMARK  210  A    between atoms: _517  and  _519
REMARK  211  A    between atoms: _519  and  _520
REMARK  212  A    between atoms: _519  and  _522
REMARK  213  A    between atoms: _522  and  _523
REMARK                            x       y       z     vdW  Elec       q    Type
REMARK                         _______ _______ _______ _____ _____    ______ ____
ROOT
ATOM      1  O   HOH     1      24.619  40.554  17.073  0.00  0.00    +0.000 OA
ENDROOT
TORSDOF 0
REMARK  Name = ../refined-set-2016/3gi5/3gi5_pocket.pdb
REMARK  213 active torsions:
REMARK  status: ('A' for Active; 'I' for Inactive)
REMARK    1  A    between atoms: _1  and  _3
REMARK    2  A    between atoms: _3  and  _4
REMARK    3  A    between atoms: _3  and  _6
REMARK    4  A    between atoms: _6  and  _7
REMARK    5  A    between atoms: _7  and  _8
REMARK    6  A    between atoms: _8  and  _9
REMARK    7  A    between atoms: _18  and  _20
REMARK    8  A    between atoms: _20  and  _21
REMARK    9  A    between atoms: _20  and  _23
REMARK   10  A    between atoms: _23  and  _24
REMARK   11  A    between atoms: _27  and  _29
REMARK   12  A    between atoms: _29  and  _30
REMARK   13  A    between atoms: _29  and  _32
REMARK   14  A    between atoms: _32  and  _33
REMARK   15  A    between atoms: _36  and  _38
REMARK   16  A    between atoms: _38  and  _39
REMARK   17  A    between atoms: _38  and  _41
REMARK   18  A    between atoms: _41  and  _42
REMARK   19  A    between atoms: _45  and  _47
REMARK   20  A    between atoms: _47  and  _48
REMARK   21  A    between atoms: _47  and  _50
REMARK   22  A    between atoms: _50  and  _51
REMARK   23  A    between atoms: _54  and  _56
REMARK   24  A    between atoms: _56  and  _57
REMARK   25  A    between atoms: _59  and  _61
REMARK   26  A    between atoms: _61  and  _62
REMARK   27  A    between atoms: _65  and  _67
REMARK   28  A    between atoms: _67  and  _68
REMARK   29  A    between atoms: _67  and  _70
REMARK   30  A    between atoms: _70  and  _71
REMARK   31  A    between atoms: _74  and  _76
REMARK   32  A    between atoms: _76  and  _77
REMARK   33  A    between atoms: _76  and  _79
REMARK   34  A    between atoms: _79  and  _80
REMARK   35  A    between atoms: _83  and  _85
REMARK   36  A    between atoms: _85  and  _86
REMARK   37  A    between atoms: _85  and  _88
REMARK   38  A    between atoms: _88  and  _89
REMARK   39  A    between atoms: _92  and  _94
REMARK   40  A    between atoms: _94  and  _95
REMARK   41  A    between atoms: _94  and  _97
REMARK   42  A    between atoms: _100  and  _102
REMARK   43  A    between atoms: _102  and  _103
REMARK   44  A    between atoms: _102  and  _105
REMARK   45  A    between atoms: _105  and  _106
REMARK   46  A    between atoms: _106  and  _107
REMARK   47  A    between atoms: _107  and  _108
REMARK   48  A    between atoms: _108  and  _109
REMARK   49  A    between atoms: _113  and  _115
REMARK   50  A    between atoms: _115  and  _116
REMARK   51  A    between atoms: _115  and  _118
REMARK   52  A    between atoms: _118  and  _119
REMARK   53  A    between atoms: _122  and  _124
REMARK   54  A    between atoms: _124  and  _125
REMARK   55  A    between atoms: _127  and  _129
REMARK   56  A    between atoms: _129  and  _130
REMARK   57  A    between atoms: _132  and  _134
REMARK   58  A    between atoms: _134  and  _135
REMARK   59  A    between atoms: _134  and  _137
REMARK   60  A    between atoms: _137  and  _138
REMARK   61  A    between atoms: _141  and  _143
REMARK   62  A    between atoms: _143  and  _144
REMARK   63  A    between atoms: _146  and  _148
REMARK   64  A    between atoms: _148  and  _149
REMARK   65  A    between atoms: _151  and  _153
REMARK   66  A    between atoms: _153  and  _154
REMARK   67  A    between atoms: _153  and  _156
REMARK   68  A    between atoms: _156  and  _157
REMARK   69  A    between atoms: _163  and  _165
REMARK   70  A    between atoms: _165  and  _166
REMARK   71  A    between atoms: _165  and  _168
REMARK   72  A    between atoms: _168  and  _169
REMARK   73  A    between atoms: _173  and  _174
REMARK   74  A    between atoms: _179  and  _181
REMARK   75  A    between atoms: _181  and  _182
REMARK   76  A    between atoms: _181  and  _184
REMARK   77  A    between atoms: _187  and  _189
REMARK   78  A    between atoms: _189  and  _190
REMARK   79  A    between atoms: _189  and  _192
REMARK   80  A    between atoms: _192  and  _193
REMARK   81  A    between atoms: _198  and  _200
REMARK   82  A    between atoms: _200  and  _201
REMARK   83  A    between atoms: _200  and  _203
REMARK   84  A    between atoms: _203  and  _204
REMARK   85  A    between atoms: _207  and  _209
REMARK   86  A    between atoms: _209  and  _210
REMARK   87  A    between atoms: _209  and  _212
REMARK   88  A    between atoms: _212  and  _213
REMARK   89  A    between atoms: _216  and  _218
REMARK   90  A    between atoms: _218  and  _219
REMARK   91  A    between atoms: _221  and  _223
REMARK   92  A    between atoms: _223  and  _224
REMARK   93  A    between atoms: _223  and  _226
REMARK   94  A    between atoms: _226  and  _227
REMARK   95  A    between atoms: _227  and  _228
REMARK   96  A    between atoms: _228  and  _229
REMARK   97  A    between atoms: _238  and  _240
REMARK   98  A    between atoms: _240  and  _241
REMARK   99  A    between atoms: _240  and  _243
REMARK  100  A    between atoms: _243  and  _244
REMARK  101  A    between atoms: _244  and  _245
REMARK  102  A    between atoms: _245  and  _246
REMARK  103  A    between atoms: _255  and  _257
REMARK  104  A    between atoms: _257  and  _258
REMARK  105  A    between atoms: _257  and  _260
REMARK  106  A    between atoms: _260  and  _261
REMARK  107  A    between atoms: _264  and  _266
REMARK  108  A    between atoms: _266  and  _267
REMARK  109  A    between atoms: _266  and  _269
REMARK  110  A    between atoms: _269  and  _270
REMARK  111  A    between atoms: _273  and  _275
REMARK  112  A    between atoms: _275  and  _276
REMARK  113  A    between atoms: _275  and  _278
REMARK  114  A    between atoms: _278  and  _279
REMARK  115  A    between atoms: _282  and  _284
REMARK  116  A    between atoms: _284  and  _285
REMARK  117  A    between atoms: _284  and  _287
REMARK  118  A    between atoms: _287  and  _288
REMARK  119  A    between atoms: _291  and  _293
REMARK  120  A    between atoms: _293  and  _294
REMARK  121  A    between atoms: _296  and  _298
REMARK  122  A    between atoms: _298  and  _299
REMARK  123  A    between atoms: _302  and  _304
REMARK  124  A    between atoms: _304  and  _305
REMARK  125  A    between atoms: _304  and  _307
REMARK  126  A    between atoms: _307  and  _308
REMARK  127  A    between atoms: _311  and  _313
REMARK  128  A    between atoms: _313  and  _314
REMARK  129  A    between atoms: _313  and  _316
REMARK  130  A    between atoms: _316  and  _317
REMARK  131  A    between atoms: _320  and  _322
REMARK  132  A    between atoms: _322  and  _323
REMARK  133  A    between atoms: _322  and  _325
REMARK  134  A    between atoms: _325  and  _326
REMARK  135  A    between atoms: _329  and  _331
REMARK  136  A    between atoms: _331  and  _332
REMARK  137  A    between atoms: _331  and  _334
REMARK  138  A    between atoms: _337  and  _339
REMARK  139  A    between atoms: _339  and  _340
REMARK  140  A    between atoms: _339  and  _342
REMARK  141  A    between atoms: _342  and  _343
REMARK  142  A    between atoms: _343  and  _344
REMARK  143  A    between atoms: _344  and  _345
REMARK  144  A    between atoms: _345  and  _346
REMARK  145  A    between atoms: _350  and  _352
REMARK  146  A    between atoms: _352  and  _353
REMARK  147  A    between atoms: _352  and  _355
REMARK  148  A    between atoms: _355  and  _356
REMARK  149  A    between atoms: _356  and  _357
REMARK  150  A    between atoms: _359  and  _361
REMARK  151  A    between atoms: _361  and  _362
REMARK  152  A    between atoms: _361  and  _364
REMARK  153  A    between atoms: _364  and  _365
REMARK  154  A    between atoms: _368  and  _370
REMARK  155  A    between atoms: _370  and  _371
REMARK  156  A    between atoms: _373  and  _375
REMARK  157  A    between atoms: _375  and  _376
REMARK  158  A    between atoms: _378  and  _380
REMARK  159  A    between atoms: _380  and  _381
REMARK  160  A    between atoms: _380  and  _383
REMARK  161  A    between atoms: _383  and  _384
REMARK  162  A    between atoms: _387  and  _389
REMARK  163  A    between atoms: _389  and  _390
REMARK  164  A    between atoms: _392  and  _394
REMARK  165  A    between atoms: _394  and  _395
REMARK  166  A    between atoms: _397  and  _399
REMARK  167  A    between atoms: _399  and  _400
REMARK  168  A    between atoms: _399  and  _402
REMARK  169  A    between atoms: _402  and  _403
REMARK  170  A    between atoms: _409  and  _411
REMARK  171  A    between atoms: _411  and  _412
REMARK  172  A    between atoms: _411  and  _414
REMARK  173  A    between atoms: _414  and  _415
REMARK  174  A    between atoms: _418  and  _420
REMARK  175  A    between atoms: _420  and  _421
REMARK  176  A    between atoms: _420  and  _423
REMARK  177  A    between atoms: _426  and  _428
REMARK  178  A    between atoms: _428  and  _429
REMARK  179  A    between atoms: _428  and  _431
REMARK  180  A    between atoms: _431  and  _432
REMARK  181  A    between atoms: _436  and  _437
REMARK  182  A    between atoms: _442  and  _444
REMARK  183  A    between atoms: _444  and  _445
REMARK  184  A    between atoms: _444  and  _447
REMARK  185  A    between atoms: _447  and  _448
REMARK  186  A    between atoms: _452  and  _453
REMARK  187  A    between atoms: _458  and  _460
REMARK  188  A    between atoms: _460  and  _461
REMARK  189  A    between atoms: _460  and  _463
REMARK  190  A    between atoms: _466  and  _468
REMARK  191  A    between atoms: _468  and  _469
REMARK  192  A    between atoms: _468  and  _471
REMARK  193  A    between atoms: _471  and  _472
REMARK  194  A    between atoms: _477  and  _479
REMARK  195  A    between atoms: _479  and  _480
REMARK  196  A    between atoms: _479  and  _482
REMARK  197  A    between atoms: _482  and  _483
REMARK  198  A    between atoms: _486  and  _488
REMARK  199  A    between atoms: _488  and  _489
REMARK  200  A    between atoms: _488  and  _491
REMARK  201  A    between atoms: _491  and  _492
REMARK  202  A    between atoms: _495  and  _497
REMARK  203  A    between atoms: _497  and  _498
REMARK  204  A    between atoms: _500  and  _502
REMARK  205  A    between atoms: _502  and  _503
REMARK  206  A    between atoms: _502  and  _505
REMARK  207  A    between atoms: _505  and  _506
REMARK  208  A    between atoms: _506  and  _507
REMARK  209  A    between atoms: _507  and  _508
REMARK  210  A    between atoms: _517  and  _519
REMARK  211  A    between atoms: _519  and  _520
REMARK  212  A    between atoms: _519  and  _522
REMARK  213  A    between atoms: _522  and  _523
REMARK                            x       y       z     vdW  Elec       q    Type
REMARK                         _______ _______ _______ _____ _____    ______ ____
ROOT
ATOM      1  O   HOH     1      19.495  36.728  18.602  0.00  0.00    +0.000 OA
ENDROOT
TORSDOF 0
REMARK  Name = ../refined-set-2016/3gi5/3gi5_pocket.pdb
REMARK  213 active torsions:
REMARK  status: ('A' for Active; 'I' for Inactive)
REMARK    1  A    between atoms: _1  and  _3
REMARK    2  A    between atoms: _3  and  _4
REMARK    3  A    between atoms: _3  and  _6
REMARK    4  A    between atoms: _6  and  _7
REMARK    5  A    between atoms: _7  and  _8
REMARK    6  A    between atoms: _8  and  _9
REMARK    7  A    between atoms: _18  and  _20
REMARK    8  A    between atoms: _20  and  _21
REMARK    9  A    between atoms: _20  and  _23
REMARK   10  A    between atoms: _23  and  _24
REMARK   11  A    between atoms: _27  and  _29
REMARK   12  A    between atoms: _29  and  _30
REMARK   13  A    between atoms: _29  and  _32
REMARK   14  A    between atoms: _32  and  _33
REMARK   15  A    between atoms: _36  and  _38
REMARK   16  A    between atoms: _38  and  _39
REMARK   17  A    between atoms: _38  and  _41
REMARK   18  A    between atoms: _41  and  _42
REMARK   19  A    between atoms: _45  and  _47
REMARK   20  A    between atoms: _47  and  _48
REMARK   21  A    between atoms: _47  and  _50
REMARK   22  A    between atoms: _50  and  _51
REMARK   23  A    between atoms: _54  and  _56
REMARK   24  A    between atoms: _56  and  _57
REMARK   25  A    between atoms: _59  and  _61
REMARK   26  A    between atoms: _61  and  _62
REMARK   27  A    between atoms: _65  and  _67
REMARK   28  A    between atoms: _67  and  _68
REMARK   29  A    between atoms: _67  and  _70
REMARK   30  A    between atoms: _70  and  _71
REMARK   31  A    between atoms: _74  and  _76
REMARK   32  A    between atoms: _76  and  _77
REMARK   33  A    between atoms: _76  and  _79
REMARK   34  A    between atoms: _79  and  _80
REMARK   35  A    between atoms: _83  and  _85
REMARK   36  A    between atoms: _85  and  _86
REMARK   37  A    between atoms: _85  and  _88
REMARK   38  A    between atoms: _88  and  _89
REMARK   39  A    between atoms: _92  and  _94
REMARK   40  A    between atoms: _94  and  _95
REMARK   41  A    between atoms: _94  and  _97
REMARK   42  A    between atoms: _100  and  _102
REMARK   43  A    between atoms: _102  and  _103
REMARK   44  A    between atoms: _102  and  _105
REMARK   45  A    between atoms: _105  and  _106
REMARK   46  A    between atoms: _106  and  _107
REMARK   47  A    between atoms: _107  and  _108
REMARK   48  A    between atoms: _108  and  _109
REMARK   49  A    between atoms: _113  and  _115
REMARK   50  A    between atoms: _115  and  _116
REMARK   51  A    between atoms: _115  and  _118
REMARK   52  A    between atoms: _118  and  _119
REMARK   53  A    between atoms: _122  and  _124
REMARK   54  A    between atoms: _124  and  _125
REMARK   55  A    between atoms: _127  and  _129
REMARK   56  A    between atoms: _129  and  _130
REMARK   57  A    between atoms: _132  and  _134
REMARK   58  A    between atoms: _134  and  _135
REMARK   59  A    between atoms: _134  and  _137
REMARK   60  A    between atoms: _137  and  _138
REMARK   61  A    between atoms: _141  and  _143
REMARK   62  A    between atoms: _143  and  _144
REMARK   63  A    between atoms: _146  and  _148
REMARK   64  A    between atoms: _148  and  _149
REMARK   65  A    between atoms: _151  and  _153
REMARK   66  A    between atoms: _153  and  _154
REMARK   67  A    between atoms: _153  and  _156
REMARK   68  A    between atoms: _156  and  _157
REMARK   69  A    between atoms: _163  and  _165
REMARK   70  A    between atoms: _165  and  _166
REMARK   71  A    between atoms: _165  and  _168
REMARK   72  A    between atoms: _168  and  _169
REMARK   73  A    between atoms: _173  and  _174
REMARK   74  A    between atoms: _179  and  _181
REMARK   75  A    between atoms: _181  and  _182
REMARK   76  A    between atoms: _181  and  _184
REMARK   77  A    between atoms: _187  and  _189
REMARK   78  A    between atoms: _189  and  _190
REMARK   79  A    between atoms: _189  and  _192
REMARK   80  A    between atoms: _192  and  _193
REMARK   81  A    between atoms: _198  and  _200
REMARK   82  A    between atoms: _200  and  _201
REMARK   83  A    between atoms: _200  and  _203
REMARK   84  A    between atoms: _203  and  _204
REMARK   85  A    between atoms: _207  and  _209
REMARK   86  A    between atoms: _209  and  _210
REMARK   87  A    between atoms: _209  and  _212
REMARK   88  A    between atoms: _212  and  _213
REMARK   89  A    between atoms: _216  and  _218
REMARK   90  A    between atoms: _218  and  _219
REMARK   91  A    between atoms: _221  and  _223
REMARK   92  A    between atoms: _223  and  _224
REMARK   93  A    between atoms: _223  and  _226
REMARK   94  A    between atoms: _226  and  _227
REMARK   95  A    between atoms: _227  and  _228
REMARK   96  A    between atoms: _228  and  _229
REMARK   97  A    between atoms: _238  and  _240
REMARK   98  A    between atoms: _240  and  _241
REMARK   99  A    between atoms: _240  and  _243
REMARK  100  A    between atoms: _243  and  _244
REMARK  101  A    between atoms: _244  and  _245
REMARK  102  A    between atoms: _245  and  _246
REMARK  103  A    between atoms: _255  and  _257
REMARK  104  A    between atoms: _257  and  _258
REMARK  105  A    between atoms: _257  and  _260
REMARK  106  A    between atoms: _260  and  _261
REMARK  107  A    between atoms: _264  and  _266
REMARK  108  A    between atoms: _266  and  _267
REMARK  109  A    between atoms: _266  and  _269
REMARK  110  A    between atoms: _269  and  _270
REMARK  111  A    between atoms: _273  and  _275
REMARK  112  A    between atoms: _275  and  _276
REMARK  113  A    between atoms: _275  and  _278
REMARK  114  A    between atoms: _278  and  _279
REMARK  115  A    between atoms: _282  and  _284
REMARK  116  A    between atoms: _284  and  _285
REMARK  117  A    between atoms: _284  and  _287
REMARK  118  A    between atoms: _287  and  _288
REMARK  119  A    between atoms: _291  and  _293
REMARK  120  A    between atoms: _293  and  _294
REMARK  121  A    between atoms: _296  and  _298
REMARK  122  A    between atoms: _298  and  _299
REMARK  123  A    between atoms: _302  and  _304
REMARK  124  A    between atoms: _304  and  _305
REMARK  125  A    between atoms: _304  and  _307
REMARK  126  A    between atoms: _307  and  _308
REMARK  127  A    between atoms: _311  and  _313
REMARK  128  A    between atoms: _313  and  _314
REMARK  129  A    between atoms: _313  and  _316
REMARK  130  A    between atoms: _316  and  _317
REMARK  131  A    between atoms: _320  and  _322
REMARK  132  A    between atoms: _322  and  _323
REMARK  133  A    between atoms: _322  and  _325
REMARK  134  A    between atoms: _325  and  _326
REMARK  135  A    between atoms: _329  and  _331
REMARK  136  A    between atoms: _331  and  _332
REMARK  137  A    between atoms: _331  and  _334
REMARK  138  A    between atoms: _337  and  _339
REMARK  139  A    between atoms: _339  and  _340
REMARK  140  A    between atoms: _339  and  _342
REMARK  141  A    between atoms: _342  and  _343
REMARK  142  A    between atoms: _343  and  _344
REMARK  143  A    between atoms: _344  and  _345
REMARK  144  A    between atoms: _345  and  _346
REMARK  145  A    between atoms: _350  and  _352
REMARK  146  A    between atoms: _352  and  _353
REMARK  147  A    between atoms: _352  and  _355
REMARK  148  A    between atoms: _355  and  _356
REMARK  149  A    between atoms: _356  and  _357
REMARK  150  A    between atoms: _359  and  _361
REMARK  151  A    between atoms: _361  and  _362
REMARK  152  A    between atoms: _361  and  _364
REMARK  153  A    between atoms: _364  and  _365
REMARK  154  A    between atoms: _368  and  _370
REMARK  155  A    between atoms: _370  and  _371
REMARK  156  A    between atoms: _373  and  _375
REMARK  157  A    between atoms: _375  and  _376
REMARK  158  A    between atoms: _378  and  _380
REMARK  159  A    between atoms: _380  and  _381
REMARK  160  A    between atoms: _380  and  _383
REMARK  161  A    between atoms: _383  and  _384
REMARK  162  A    between atoms: _387  and  _389
REMARK  163  A    between atoms: _389  and  _390
REMARK  164  A    between atoms: _392  and  _394
REMARK  165  A    between atoms: _394  and  _395
REMARK  166  A    between atoms: _397  and  _399
REMARK  167  A    between atoms: _399  and  _400
REMARK  168  A    between atoms: _399  and  _402
REMARK  169  A    between atoms: _402  and  _403
REMARK  170  A    between atoms: _409  and  _411
REMARK  171  A    between atoms: _411  and  _412
REMARK  172  A    between atoms: _411  and  _414
REMARK  173  A    between atoms: _414  and  _415
REMARK  174  A    between atoms: _418  and  _420
REMARK  175  A    between atoms: _420  and  _421
REMARK  176  A    between atoms: _420  and  _423
REMARK  177  A    between atoms: _426  and  _428
REMARK  178  A    between atoms: _428  and  _429
REMARK  179  A    between atoms: _428  and  _431
REMARK  180  A    between atoms: _431  and  _432
REMARK  181  A    between atoms: _436  and  _437
REMARK  182  A    between atoms: _442  and  _444
REMARK  183  A    between atoms: _444  and  _445
REMARK  184  A    between atoms: _444  and  _447
REMARK  185  A    between atoms: _447  and  _448
REMARK  186  A    between atoms: _452  and  _453
REMARK  187  A    between atoms: _458  and  _460
REMARK  188  A    between atoms: _460  and  _461
REMARK  189  A    between atoms: _460  and  _463
REMARK  190  A    between atoms: _466  and  _468
REMARK  191  A    between atoms: _468  and  _469
REMARK  192  A    between atoms: _468  and  _471
REMARK  193  A    between atoms: _471  and  _472
REMARK  194  A    between atoms: _477  and  _479
REMARK  195  A    between atoms: _479  and  _480
REMARK  196  A    between atoms: _479  and  _482
REMARK  197  A    between atoms: _482  and  _483
REMARK  198  A    between atoms: _486  and  _488
REMARK  199  A    between atoms: _488  and  _489
REMARK  200  A    between atoms: _488  and  _491
REMARK  201  A    between atoms: _491  and  _492
REMARK  202  A    between atoms: _495  and  _497
REMARK  203  A    between atoms: _497  and  _498
REMARK  204  A    between atoms: _500  and  _502
REMARK  205  A    between atoms: _502  and  _503
REMARK  206  A    between atoms: _502  and  _505
REMARK  207  A    between atoms: _505  and  _506
REMARK  208  A    between atoms: _506  and  _507
REMARK  209  A    between atoms: _507  and  _508
REMARK  210  A    between atoms: _517  and  _519
REMARK  211  A    between atoms: _519  and  _520
REMARK  212  A    between atoms: _519  and  _522
REMARK  213  A    between atoms: _522  and  _523
REMARK                            x       y       z     vdW  Elec       q    Type
REMARK                         _______ _______ _______ _____ _____    ______ ____
ROOT
ATOM      1  O   HOH     1      23.568  21.216   5.625  0.00  0.00    +0.000 OA
ENDROOT
TORSDOF 0
REMARK  Name = ../refined-set-2016/3gi5/3gi5_pocket.pdb
REMARK  213 active torsions:
REMARK  status: ('A' for Active; 'I' for Inactive)
REMARK    1  A    between atoms: _1  and  _3
REMARK    2  A    between atoms: _3  and  _4
REMARK    3  A    between atoms: _3  and  _6
REMARK    4  A    between atoms: _6  and  _7
REMARK    5  A    between atoms: _7  and  _8
REMARK    6  A    between atoms: _8  and  _9
REMARK    7  A    between atoms: _18  and  _20
REMARK    8  A    between atoms: _20  and  _21
REMARK    9  A    between atoms: _20  and  _23
REMARK   10  A    between atoms: _23  and  _24
REMARK   11  A    between atoms: _27  and  _29
REMARK   12  A    between atoms: _29  and  _30
REMARK   13  A    between atoms: _29  and  _32
REMARK   14  A    between atoms: _32  and  _33
REMARK   15  A    between atoms: _36  and  _38
REMARK   16  A    between atoms: _38  and  _39
REMARK   17  A    between atoms: _38  and  _41
REMARK   18  A    between atoms: _41  and  _42
REMARK   19  A    between atoms: _45  and  _47
REMARK   20  A    between atoms: _47  and  _48
REMARK   21  A    between atoms: _47  and  _50
REMARK   22  A    between atoms: _50  and  _51
REMARK   23  A    between atoms: _54  and  _56
REMARK   24  A    between atoms: _56  and  _57
REMARK   25  A    between atoms: _59  and  _61
REMARK   26  A    between atoms: _61  and  _62
REMARK   27  A    between atoms: _65  and  _67
REMARK   28  A    between atoms: _67  and  _68
REMARK   29  A    between atoms: _67  and  _70
REMARK   30  A    between atoms: _70  and  _71
REMARK   31  A    between atoms: _74  and  _76
REMARK   32  A    between atoms: _76  and  _77
REMARK   33  A    between atoms: _76  and  _79
REMARK   34  A    between atoms: _79  and  _80
REMARK   35  A    between atoms: _83  and  _85
REMARK   36  A    between atoms: _85  and  _86
REMARK   37  A    between atoms: _85  and  _88
REMARK   38  A    between atoms: _88  and  _89
REMARK   39  A    between atoms: _92  and  _94
REMARK   40  A    between atoms: _94  and  _95
REMARK   41  A    between atoms: _94  and  _97
REMARK   42  A    between atoms: _100  and  _102
REMARK   43  A    between atoms: _102  and  _103
REMARK   44  A    between atoms: _102  and  _105
REMARK   45  A    between atoms: _105  and  _106
REMARK   46  A    between atoms: _106  and  _107
REMARK   47  A    between atoms: _107  and  _108
REMARK   48  A    between atoms: _108  and  _109
REMARK   49  A    between atoms: _113  and  _115
REMARK   50  A    between atoms: _115  and  _116
REMARK   51  A    between atoms: _115  and  _118
REMARK   52  A    between atoms: _118  and  _119
REMARK   53  A    between atoms: _122  and  _124
REMARK   54  A    between atoms: _124  and  _125
REMARK   55  A    between atoms: _127  and  _129
REMARK   56  A    between atoms: _129  and  _130
REMARK   57  A    between atoms: _132  and  _134
REMARK   58  A    between atoms: _134  and  _135
REMARK   59  A    between atoms: _134  and  _137
REMARK   60  A    between atoms: _137  and  _138
REMARK   61  A    between atoms: _141  and  _143
REMARK   62  A    between atoms: _143  and  _144
REMARK   63  A    between atoms: _146  and  _148
REMARK   64  A    between atoms: _148  and  _149
REMARK   65  A    between atoms: _151  and  _153
REMARK   66  A    between atoms: _153  and  _154
REMARK   67  A    between atoms: _153  and  _156
REMARK   68  A    between atoms: _156  and  _157
REMARK   69  A    between atoms: _163  and  _165
REMARK   70  A    between atoms: _165  and  _166
REMARK   71  A    between atoms: _165  and  _168
REMARK   72  A    between atoms: _168  and  _169
REMARK   73  A    between atoms: _173  and  _174
REMARK   74  A    between atoms: _179  and  _181
REMARK   75  A    between atoms: _181  and  _182
REMARK   76  A    between atoms: _181  and  _184
REMARK   77  A    between atoms: _187  and  _189
REMARK   78  A    between atoms: _189  and  _190
REMARK   79  A    between atoms: _189  and  _192
REMARK   80  A    between atoms: _192  and  _193
REMARK   81  A    between atoms: _198  and  _200
REMARK   82  A    between atoms: _200  and  _201
REMARK   83  A    between atoms: _200  and  _203
REMARK   84  A    between atoms: _203  and  _204
REMARK   85  A    between atoms: _207  and  _209
REMARK   86  A    between atoms: _209  and  _210
REMARK   87  A    between atoms: _209  and  _212
REMARK   88  A    between atoms: _212  and  _213
REMARK   89  A    between atoms: _216  and  _218
REMARK   90  A    between atoms: _218  and  _219
REMARK   91  A    between atoms: _221  and  _223
REMARK   92  A    between atoms: _223  and  _224
REMARK   93  A    between atoms: _223  and  _226
REMARK   94  A    between atoms: _226  and  _227
REMARK   95  A    between atoms: _227  and  _228
REMARK   96  A    between atoms: _228  and  _229
REMARK   97  A    between atoms: _238  and  _240
REMARK   98  A    between atoms: _240  and  _241
REMARK   99  A    between atoms: _240  and  _243
REMARK  100  A    between atoms: _243  and  _244
REMARK  101  A    between atoms: _244  and  _245
REMARK  102  A    between atoms: _245  and  _246
REMARK  103  A    between atoms: _255  and  _257
REMARK  104  A    between atoms: _257  and  _258
REMARK  105  A    between atoms: _257  and  _260
REMARK  106  A    between atoms: _260  and  _261
REMARK  107  A    between atoms: _264  and  _266
REMARK  108  A    between atoms: _266  and  _267
REMARK  109  A    between atoms: _266  and  _269
REMARK  110  A    between atoms: _269  and  _270
REMARK  111  A    between atoms: _273  and  _275
REMARK  112  A    between atoms: _275  and  _276
REMARK  113  A    between atoms: _275  and  _278
REMARK  114  A    between atoms: _278  and  _279
REMARK  115  A    between atoms: _282  and  _284
REMARK  116  A    between atoms: _284  and  _285
REMARK  117  A    between atoms: _284  and  _287
REMARK  118  A    between atoms: _287  and  _288
REMARK  119  A    between atoms: _291  and  _293
REMARK  120  A    between atoms: _293  and  _294
REMARK  121  A    between atoms: _296  and  _298
REMARK  122  A    between atoms: _298  and  _299
REMARK  123  A    between atoms: _302  and  _304
REMARK  124  A    between atoms: _304  and  _305
REMARK  125  A    between atoms: _304  and  _307
REMARK  126  A    between atoms: _307  and  _308
REMARK  127  A    between atoms: _311  and  _313
REMARK  128  A    between atoms: _313  and  _314
REMARK  129  A    between atoms: _313  and  _316
REMARK  130  A    between atoms: _316  and  _317
REMARK  131  A    between atoms: _320  and  _322
REMARK  132  A    between atoms: _322  and  _323
REMARK  133  A    between atoms: _322  and  _325
REMARK  134  A    between atoms: _325  and  _326
REMARK  135  A    between atoms: _329  and  _331
REMARK  136  A    between atoms: _331  and  _332
REMARK  137  A    between atoms: _331  and  _334
REMARK  138  A    between atoms: _337  and  _339
REMARK  139  A    between atoms: _339  and  _340
REMARK  140  A    between atoms: _339  and  _342
REMARK  141  A    between atoms: _342  and  _343
REMARK  142  A    between atoms: _343  and  _344
REMARK  143  A    between atoms: _344  and  _345
REMARK  144  A    between atoms: _345  and  _346
REMARK  145  A    between atoms: _350  and  _352
REMARK  146  A    between atoms: _352  and  _353
REMARK  147  A    between atoms: _352  and  _355
REMARK  148  A    between atoms: _355  and  _356
REMARK  149  A    between atoms: _356  and  _357
REMARK  150  A    between atoms: _359  and  _361
REMARK  151  A    between atoms: _361  and  _362
REMARK  152  A    between atoms: _361  and  _364
REMARK  153  A    between atoms: _364  and  _365
REMARK  154  A    between atoms: _368  and  _370
REMARK  155  A    between atoms: _370  and  _371
REMARK  156  A    between atoms: _373  and  _375
REMARK  157  A    between atoms: _375  and  _376
REMARK  158  A    between atoms: _378  and  _380
REMARK  159  A    between atoms: _380  and  _381
REMARK  160  A    between atoms: _380  and  _383
REMARK  161  A    between atoms: _383  and  _384
REMARK  162  A    between atoms: _387  and  _389
REMARK  163  A    between atoms: _389  and  _390
REMARK  164  A    between atoms: _392  and  _394
REMARK  165  A    between atoms: _394  and  _395
REMARK  166  A    between atoms: _397  and  _399
REMARK  167  A    between atoms: _399  and  _400
REMARK  168  A    between atoms: _399  and  _402
REMARK  169  A    between atoms: _402  and  _403
REMARK  170  A    between atoms: _409  and  _411
REMARK  171  A    between atoms: _411  and  _412
REMARK  172  A    between atoms: _411  and  _414
REMARK  173  A    between atoms: _414  and  _415
REMARK  174  A    between atoms: _418  and  _420
REMARK  175  A    between atoms: _420  and  _421
REMARK  176  A    between atoms: _420  and  _423
REMARK  177  A    between atoms: _426  and  _428
REMARK  178  A    between atoms: _428  and  _429
REMARK  179  A    between atoms: _428  and  _431
REMARK  180  A    between atoms: _431  and  _432
REMARK  181  A    between atoms: _436  and  _437
REMARK  182  A    between atoms: _442  and  _444
REMARK  183  A    between atoms: _444  and  _445
REMARK  184  A    between atoms: _444  and  _447
REMARK  185  A    between atoms: _447  and  _448
REMARK  186  A    between atoms: _452  and  _453
REMARK  187  A    between atoms: _458  and  _460
REMARK  188  A    between atoms: _460  and  _461
REMARK  189  A    between atoms: _460  and  _463
REMARK  190  A    between atoms: _466  and  _468
REMARK  191  A    between atoms: _468  and  _469
REMARK  192  A    between atoms: _468  and  _471
REMARK  193  A    between atoms: _471  and  _472
REMARK  194  A    between atoms: _477  and  _479
REMARK  195  A    between atoms: _479  and  _480
REMARK  196  A    between atoms: _479  and  _482
REMARK  197  A    between atoms: _482  and  _483
REMARK  198  A    between atoms: _486  and  _488
REMARK  199  A    between atoms: _488  and  _489
REMARK  200  A    between atoms: _488  and  _491
REMARK  201  A    between atoms: _491  and  _492
REMARK  202  A    between atoms: _495  and  _497
REMARK  203  A    between atoms: _497  and  _498
REMARK  204  A    between atoms: _500  and  _502
REMARK  205  A    between atoms: _502  and  _503
REMARK  206  A    between atoms: _502  and  _505
REMARK  207  A    between atoms: _505  and  _506
REMARK  208  A    between atoms: _506  and  _507
REMARK  209  A    between atoms: _507  and  _508
REMARK  210  A    between atoms: _517  and  _519
REMARK  211  A    between atoms: _519  and  _520
REMARK  212  A    between atoms: _519  and  _522
REMARK  213  A    between atoms: _522  and  _523
REMARK                            x       y       z     vdW  Elec       q    Type
REMARK                         _______ _______ _______ _____ _____    ______ ____
ROOT
ATOM      1  O   HOH     1      24.150  27.311   9.243  0.00  0.00    +0.000 OA
ENDROOT
TORSDOF 0
REMARK  Name = ../refined-set-2016/3gi5/3gi5_pocket.pdb
REMARK  213 active torsions:
REMARK  status: ('A' for Active; 'I' for Inactive)
REMARK    1  A    between atoms: _1  and  _3
REMARK    2  A    between atoms: _3  and  _4
REMARK    3  A    between atoms: _3  and  _6
REMARK    4  A    between atoms: _6  and  _7
REMARK    5  A    between atoms: _7  and  _8
REMARK    6  A    between atoms: _8  and  _9
REMARK    7  A    between atoms: _18  and  _20
REMARK    8  A    between atoms: _20  and  _21
REMARK    9  A    between atoms: _20  and  _23
REMARK   10  A    between atoms: _23  and  _24
REMARK   11  A    between atoms: _27  and  _29
REMARK   12  A    between atoms: _29  and  _30
REMARK   13  A    between atoms: _29  and  _32
REMARK   14  A    between atoms: _32  and  _33
REMARK   15  A    between atoms: _36  and  _38
REMARK   16  A    between atoms: _38  and  _39
REMARK   17  A    between atoms: _38  and  _41
REMARK   18  A    between atoms: _41  and  _42
REMARK   19  A    between atoms: _45  and  _47
REMARK   20  A    between atoms: _47  and  _48
REMARK   21  A    between atoms: _47  and  _50
REMARK   22  A    between atoms: _50  and  _51
REMARK   23  A    between atoms: _54  and  _56
REMARK   24  A    between atoms: _56  and  _57
REMARK   25  A    between atoms: _59  and  _61
REMARK   26  A    between atoms: _61  and  _62
REMARK   27  A    between atoms: _65  and  _67
REMARK   28  A    between atoms: _67  and  _68
REMARK   29  A    between atoms: _67  and  _70
REMARK   30  A    between atoms: _70  and  _71
REMARK   31  A    between atoms: _74  and  _76
REMARK   32  A    between atoms: _76  and  _77
REMARK   33  A    between atoms: _76  and  _79
REMARK   34  A    between atoms: _79  and  _80
REMARK   35  A    between atoms: _83  and  _85
REMARK   36  A    between atoms: _85  and  _86
REMARK   37  A    between atoms: _85  and  _88
REMARK   38  A    between atoms: _88  and  _89
REMARK   39  A    between atoms: _92  and  _94
REMARK   40  A    between atoms: _94  and  _95
REMARK   41  A    between atoms: _94  and  _97
REMARK   42  A    between atoms: _100  and  _102
REMARK   43  A    between atoms: _102  and  _103
REMARK   44  A    between atoms: _102  and  _105
REMARK   45  A    between atoms: _105  and  _106
REMARK   46  A    between atoms: _106  and  _107
REMARK   47  A    between atoms: _107  and  _108
REMARK   48  A    between atoms: _108  and  _109
REMARK   49  A    between atoms: _113  and  _115
REMARK   50  A    between atoms: _115  and  _116
REMARK   51  A    between atoms: _115  and  _118
REMARK   52  A    between atoms: _118  and  _119
REMARK   53  A    between atoms: _122  and  _124
REMARK   54  A    between atoms: _124  and  _125
REMARK   55  A    between atoms: _127  and  _129
REMARK   56  A    between atoms: _129  and  _130
REMARK   57  A    between atoms: _132  and  _134
REMARK   58  A    between atoms: _134  and  _135
REMARK   59  A    between atoms: _134  and  _137
REMARK   60  A    between atoms: _137  and  _138
REMARK   61  A    between atoms: _141  and  _143
REMARK   62  A    between atoms: _143  and  _144
REMARK   63  A    between atoms: _146  and  _148
REMARK   64  A    between atoms: _148  and  _149
REMARK   65  A    between atoms: _151  and  _153
REMARK   66  A    between atoms: _153  and  _154
REMARK   67  A    between atoms: _153  and  _156
REMARK   68  A    between atoms: _156  and  _157
REMARK   69  A    between atoms: _163  and  _165
REMARK   70  A    between atoms: _165  and  _166
REMARK   71  A    between atoms: _165  and  _168
REMARK   72  A    between atoms: _168  and  _169
REMARK   73  A    between atoms: _173  and  _174
REMARK   74  A    between atoms: _179  and  _181
REMARK   75  A    between atoms: _181  and  _182
REMARK   76  A    between atoms: _181  and  _184
REMARK   77  A    between atoms: _187  and  _189
REMARK   78  A    between atoms: _189  and  _190
REMARK   79  A    between atoms: _189  and  _192
REMARK   80  A    between atoms: _192  and  _193
REMARK   81  A    between atoms: _198  and  _200
REMARK   82  A    between atoms: _200  and  _201
REMARK   83  A    between atoms: _200  and  _203
REMARK   84  A    between atoms: _203  and  _204
REMARK   85  A    between atoms: _207  and  _209
REMARK   86  A    between atoms: _209  and  _210
REMARK   87  A    between atoms: _209  and  _212
REMARK   88  A    between atoms: _212  and  _213
REMARK   89  A    between atoms: _216  and  _218
REMARK   90  A    between atoms: _218  and  _219
REMARK   91  A    between atoms: _221  and  _223
REMARK   92  A    between atoms: _223  and  _224
REMARK   93  A    between atoms: _223  and  _226
REMARK   94  A    between atoms: _226  and  _227
REMARK   95  A    between atoms: _227  and  _228
REMARK   96  A    between atoms: _228  and  _229
REMARK   97  A    between atoms: _238  and  _240
REMARK   98  A    between atoms: _240  and  _241
REMARK   99  A    between atoms: _240  and  _243
REMARK  100  A    between atoms: _243  and  _244
REMARK  101  A    between atoms: _244  and  _245
REMARK  102  A    between atoms: _245  and  _246
REMARK  103  A    between atoms: _255  and  _257
REMARK  104  A    between atoms: _257  and  _258
REMARK  105  A    between atoms: _257  and  _260
REMARK  106  A    between atoms: _260  and  _261
REMARK  107  A    between atoms: _264  and  _266
REMARK  108  A    between atoms: _266  and  _267
REMARK  109  A    between atoms: _266  and  _269
REMARK  110  A    between atoms: _269  and  _270
REMARK  111  A    between atoms: _273  and  _275
REMARK  112  A    between atoms: _275  and  _276
REMARK  113  A    between atoms: _275  and  _278
REMARK  114  A    between atoms: _278  and  _279
REMARK  115  A    between atoms: _282  and  _284
REMARK  116  A    between atoms: _284  and  _285
REMARK  117  A    between atoms: _284  and  _287
REMARK  118  A    between atoms: _287  and  _288
REMARK  119  A    between atoms: _291  and  _293
REMARK  120  A    between atoms: _293  and  _294
REMARK  121  A    between atoms: _296  and  _298
REMARK  122  A    between atoms: _298  and  _299
REMARK  123  A    between atoms: _302  and  _304
REMARK  124  A    between atoms: _304  and  _305
REMARK  125  A    between atoms: _304  and  _307
REMARK  126  A    between atoms: _307  and  _308
REMARK  127  A    between atoms: _311  and  _313
REMARK  128  A    between atoms: _313  and  _314
REMARK  129  A    between atoms: _313  and  _316
REMARK  130  A    between atoms: _316  and  _317
REMARK  131  A    between atoms: _320  and  _322
REMARK  132  A    between atoms: _322  and  _323
REMARK  133  A    between atoms: _322  and  _325
REMARK  134  A    between atoms: _325  and  _326
REMARK  135  A    between atoms: _329  and  _331
REMARK  136  A    between atoms: _331  and  _332
REMARK  137  A    between atoms: _331  and  _334
REMARK  138  A    between atoms: _337  and  _339
REMARK  139  A    between atoms: _339  and  _340
REMARK  140  A    between atoms: _339  and  _342
REMARK  141  A    between atoms: _342  and  _343
REMARK  142  A    between atoms: _343  and  _344
REMARK  143  A    between atoms: _344  and  _345
REMARK  144  A    between atoms: _345  and  _346
REMARK  145  A    between atoms: _350  and  _352
REMARK  146  A    between atoms: _352  and  _353
REMARK  147  A    between atoms: _352  and  _355
REMARK  148  A    between atoms: _355  and  _356
REMARK  149  A    between atoms: _356  and  _357
REMARK  150  A    between atoms: _359  and  _361
REMARK  151  A    between atoms: _361  and  _362
REMARK  152  A    between atoms: _361  and  _364
REMARK  153  A    between atoms: _364  and  _365
REMARK  154  A    between atoms: _368  and  _370
REMARK  155  A    between atoms: _370  and  _371
REMARK  156  A    between atoms: _373  and  _375
REMARK  157  A    between atoms: _375  and  _376
REMARK  158  A    between atoms: _378  and  _380
REMARK  159  A    between atoms: _380  and  _381
REMARK  160  A    between atoms: _380  and  _383
REMARK  161  A    between atoms: _383  and  _384
REMARK  162  A    between atoms: _387  and  _389
REMARK  163  A    between atoms: _389  and  _390
REMARK  164  A    between atoms: _392  and  _394
REMARK  165  A    between atoms: _394  and  _395
REMARK  166  A    between atoms: _397  and  _399
REMARK  167  A    between atoms: _399  and  _400
REMARK  168  A    between atoms: _399  and  _402
REMARK  169  A    between atoms: _402  and  _403
REMARK  170  A    between atoms: _409  and  _411
REMARK  171  A    between atoms: _411  and  _412
REMARK  172  A    between atoms: _411  and  _414
REMARK  173  A    between atoms: _414  and  _415
REMARK  174  A    between atoms: _418  and  _420
REMARK  175  A    between atoms: _420  and  _421
REMARK  176  A    between atoms: _420  and  _423
REMARK  177  A    between atoms: _426  and  _428
REMARK  178  A    between atoms: _428  and  _429
REMARK  179  A    between atoms: _428  and  _431
REMARK  180  A    between atoms: _431  and  _432
REMARK  181  A    between atoms: _436  and  _437
REMARK  182  A    between atoms: _442  and  _444
REMARK  183  A    between atoms: _444  and  _445
REMARK  184  A    between atoms: _444  and  _447
REMARK  185  A    between atoms: _447  and  _448
REMARK  186  A    between atoms: _452  and  _453
REMARK  187  A    between atoms: _458  and  _460
REMARK  188  A    between atoms: _460  and  _461
REMARK  189  A    between atoms: _460  and  _463
REMARK  190  A    between atoms: _466  and  _468
REMARK  191  A    between atoms: _468  and  _469
REMARK  192  A    between atoms: _468  and  _471
REMARK  193  A    between atoms: _471  and  _472
REMARK  194  A    between atoms: _477  and  _479
REMARK  195  A    between atoms: _479  and  _480
REMARK  196  A    between atoms: _479  and  _482
REMARK  197  A    between atoms: _482  and  _483
REMARK  198  A    between atoms: _486  and  _488
REMARK  199  A    between atoms: _488  and  _489
REMARK  200  A    between atoms: _488  and  _491
REMARK  201  A    between atoms: _491  and  _492
REMARK  202  A    between atoms: _495  and  _497
REMARK  203  A    between atoms: _497  and  _498
REMARK  204  A    between atoms: _500  and  _502
REMARK  205  A    between atoms: _502  and  _503
REMARK  206  A    between atoms: _502  and  _505
REMARK  207  A    between atoms: _505  and  _506
REMARK  208  A    between atoms: _506  and  _507
REMARK  209  A    between atoms: _507  and  _508
REMARK  210  A    between atoms: _517  and  _519
REMARK  211  A    between atoms: _519  and  _520
REMARK  212  A    between atoms: _519  and  _522
REMARK  213  A    between atoms: _522  and  _523
REMARK                            x       y       z     vdW  Elec       q    Type
REMARK                         _______ _______ _______ _____ _____    ______ ____
ROOT
ATOM      1  O   HOH     1      19.918  32.260  23.459  0.00  0.00    +0.000 OA
ENDROOT
TORSDOF 0
REMARK  Name = ../refined-set-2016/3gi5/3gi5_pocket.pdb
REMARK  213 active torsions:
REMARK  status: ('A' for Active; 'I' for Inactive)
REMARK    1  A    between atoms: _1  and  _3
REMARK    2  A    between atoms: _3  and  _4
REMARK    3  A    between atoms: _3  and  _6
REMARK    4  A    between atoms: _6  and  _7
REMARK    5  A    between atoms: _7  and  _8
REMARK    6  A    between atoms: _8  and  _9
REMARK    7  A    between atoms: _18  and  _20
REMARK    8  A    between atoms: _20  and  _21
REMARK    9  A    between atoms: _20  and  _23
REMARK   10  A    between atoms: _23  and  _24
REMARK   11  A    between atoms: _27  and  _29
REMARK   12  A    between atoms: _29  and  _30
REMARK   13  A    between atoms: _29  and  _32
REMARK   14  A    between atoms: _32  and  _33
REMARK   15  A    between atoms: _36  and  _38
REMARK   16  A    between atoms: _38  and  _39
REMARK   17  A    between atoms: _38  and  _41
REMARK   18  A    between atoms: _41  and  _42
REMARK   19  A    between atoms: _45  and  _47
REMARK   20  A    between atoms: _47  and  _48
REMARK   21  A    between atoms: _47  and  _50
REMARK   22  A    between atoms: _50  and  _51
REMARK   23  A    between atoms: _54  and  _56
REMARK   24  A    between atoms: _56  and  _57
REMARK   25  A    between atoms: _59  and  _61
REMARK   26  A    between atoms: _61  and  _62
REMARK   27  A    between atoms: _65  and  _67
REMARK   28  A    between atoms: _67  and  _68
REMARK   29  A    between atoms: _67  and  _70
REMARK   30  A    between atoms: _70  and  _71
REMARK   31  A    between atoms: _74  and  _76
REMARK   32  A    between atoms: _76  and  _77
REMARK   33  A    between atoms: _76  and  _79
REMARK   34  A    between atoms: _79  and  _80
REMARK   35  A    between atoms: _83  and  _85
REMARK   36  A    between atoms: _85  and  _86
REMARK   37  A    between atoms: _85  and  _88
REMARK   38  A    between atoms: _88  and  _89
REMARK   39  A    between atoms: _92  and  _94
REMARK   40  A    between atoms: _94  and  _95
REMARK   41  A    between atoms: _94  and  _97
REMARK   42  A    between atoms: _100  and  _102
REMARK   43  A    between atoms: _102  and  _103
REMARK   44  A    between atoms: _102  and  _105
REMARK   45  A    between atoms: _105  and  _106
REMARK   46  A    between atoms: _106  and  _107
REMARK   47  A    between atoms: _107  and  _108
REMARK   48  A    between atoms: _108  and  _109
REMARK   49  A    between atoms: _113  and  _115
REMARK   50  A    between atoms: _115  and  _116
REMARK   51  A    between atoms: _115  and  _118
REMARK   52  A    between atoms: _118  and  _119
REMARK   53  A    between atoms: _122  and  _124
REMARK   54  A    between atoms: _124  and  _125
REMARK   55  A    between atoms: _127  and  _129
REMARK   56  A    between atoms: _129  and  _130
REMARK   57  A    between atoms: _132  and  _134
REMARK   58  A    between atoms: _134  and  _135
REMARK   59  A    between atoms: _134  and  _137
REMARK   60  A    between atoms: _137  and  _138
REMARK   61  A    between atoms: _141  and  _143
REMARK   62  A    between atoms: _143  and  _144
REMARK   63  A    between atoms: _146  and  _148
REMARK   64  A    between atoms: _148  and  _149
REMARK   65  A    between atoms: _151  and  _153
REMARK   66  A    between atoms: _153  and  _154
REMARK   67  A    between atoms: _153  and  _156
REMARK   68  A    between atoms: _156  and  _157
REMARK   69  A    between atoms: _163  and  _165
REMARK   70  A    between atoms: _165  and  _166
REMARK   71  A    between atoms: _165  and  _168
REMARK   72  A    between atoms: _168  and  _169
REMARK   73  A    between atoms: _173  and  _174
REMARK   74  A    between atoms: _179  and  _181
REMARK   75  A    between atoms: _181  and  _182
REMARK   76  A    between atoms: _181  and  _184
REMARK   77  A    between atoms: _187  and  _189
REMARK   78  A    between atoms: _189  and  _190
REMARK   79  A    between atoms: _189  and  _192
REMARK   80  A    between atoms: _192  and  _193
REMARK   81  A    between atoms: _198  and  _200
REMARK   82  A    between atoms: _200  and  _201
REMARK   83  A    between atoms: _200  and  _203
REMARK   84  A    between atoms: _203  and  _204
REMARK   85  A    between atoms: _207  and  _209
REMARK   86  A    between atoms: _209  and  _210
REMARK   87  A    between atoms: _209  and  _212
REMARK   88  A    between atoms: _212  and  _213
REMARK   89  A    between atoms: _216  and  _218
REMARK   90  A    between atoms: _218  and  _219
REMARK   91  A    between atoms: _221  and  _223
REMARK   92  A    between atoms: _223  and  _224
REMARK   93  A    between atoms: _223  and  _226
REMARK   94  A    between atoms: _226  and  _227
REMARK   95  A    between atoms: _227  and  _228
REMARK   96  A    between atoms: _228  and  _229
REMARK   97  A    between atoms: _238  and  _240
REMARK   98  A    between atoms: _240  and  _241
REMARK   99  A    between atoms: _240  and  _243
REMARK  100  A    between atoms: _243  and  _244
REMARK  101  A    between atoms: _244  and  _245
REMARK  102  A    between atoms: _245  and  _246
REMARK  103  A    between atoms: _255  and  _257
REMARK  104  A    between atoms: _257  and  _258
REMARK  105  A    between atoms: _257  and  _260
REMARK  106  A    between atoms: _260  and  _261
REMARK  107  A    between atoms: _264  and  _266
REMARK  108  A    between atoms: _266  and  _267
REMARK  109  A    between atoms: _266  and  _269
REMARK  110  A    between atoms: _269  and  _270
REMARK  111  A    between atoms: _273  and  _275
REMARK  112  A    between atoms: _275  and  _276
REMARK  113  A    between atoms: _275  and  _278
REMARK  114  A    between atoms: _278  and  _279
REMARK  115  A    between atoms: _282  and  _284
REMARK  116  A    between atoms: _284  and  _285
REMARK  117  A    between atoms: _284  and  _287
REMARK  118  A    between atoms: _287  and  _288
REMARK  119  A    between atoms: _291  and  _293
REMARK  120  A    between atoms: _293  and  _294
REMARK  121  A    between atoms: _296  and  _298
REMARK  122  A    between atoms: _298  and  _299
REMARK  123  A    between atoms: _302  and  _304
REMARK  124  A    between atoms: _304  and  _305
REMARK  125  A    between atoms: _304  and  _307
REMARK  126  A    between atoms: _307  and  _308
REMARK  127  A    between atoms: _311  and  _313
REMARK  128  A    between atoms: _313  and  _314
REMARK  129  A    between atoms: _313  and  _316
REMARK  130  A    between atoms: _316  and  _317
REMARK  131  A    between atoms: _320  and  _322
REMARK  132  A    between atoms: _322  and  _323
REMARK  133  A    between atoms: _322  and  _325
REMARK  134  A    between atoms: _325  and  _326
REMARK  135  A    between atoms: _329  and  _331
REMARK  136  A    between atoms: _331  and  _332
REMARK  137  A    between atoms: _331  and  _334
REMARK  138  A    between atoms: _337  and  _339
REMARK  139  A    between atoms: _339  and  _340
REMARK  140  A    between atoms: _339  and  _342
REMARK  141  A    between atoms: _342  and  _343
REMARK  142  A    between atoms: _343  and  _344
REMARK  143  A    between atoms: _344  and  _345
REMARK  144  A    between atoms: _345  and  _346
REMARK  145  A    between atoms: _350  and  _352
REMARK  146  A    between atoms: _352  and  _353
REMARK  147  A    between atoms: _352  and  _355
REMARK  148  A    between atoms: _355  and  _356
REMARK  149  A    between atoms: _356  and  _357
REMARK  150  A    between atoms: _359  and  _361
REMARK  151  A    between atoms: _361  and  _362
REMARK  152  A    between atoms: _361  and  _364
REMARK  153  A    between atoms: _364  and  _365
REMARK  154  A    between atoms: _368  and  _370
REMARK  155  A    between atoms: _370  and  _371
REMARK  156  A    between atoms: _373  and  _375
REMARK  157  A    between atoms: _375  and  _376
REMARK  158  A    between atoms: _378  and  _380
REMARK  159  A    between atoms: _380  and  _381
REMARK  160  A    between atoms: _380  and  _383
REMARK  161  A    between atoms: _383  and  _384
REMARK  162  A    between atoms: _387  and  _389
REMARK  163  A    between atoms: _389  and  _390
REMARK  164  A    between atoms: _392  and  _394
REMARK  165  A    between atoms: _394  and  _395
REMARK  166  A    between atoms: _397  and  _399
REMARK  167  A    between atoms: _399  and  _400
REMARK  168  A    between atoms: _399  and  _402
REMARK  169  A    between atoms: _402  and  _403
REMARK  170  A    between atoms: _409  and  _411
REMARK  171  A    between atoms: _411  and  _412
REMARK  172  A    between atoms: _411  and  _414
REMARK  173  A    between atoms: _414  and  _415
REMARK  174  A    between atoms: _418  and  _420
REMARK  175  A    between atoms: _420  and  _421
REMARK  176  A    between atoms: _420  and  _423
REMARK  177  A    between atoms: _426  and  _428
REMARK  178  A    between atoms: _428  and  _429
REMARK  179  A    between atoms: _428  and  _431
REMARK  180  A    between atoms: _431  and  _432
REMARK  181  A    between atoms: _436  and  _437
REMARK  182  A    between atoms: _442  and  _444
REMARK  183  A    between atoms: _444  and  _445
REMARK  184  A    between atoms: _444  and  _447
REMARK  185  A    between atoms: _447  and  _448
REMARK  186  A    between atoms: _452  and  _453
REMARK  187  A    between atoms: _458  and  _460
REMARK  188  A    between atoms: _460  and  _461
REMARK  189  A    between atoms: _460  and  _463
REMARK  190  A    between atoms: _466  and  _468
REMARK  191  A    between atoms: _468  and  _469
REMARK  192  A    between atoms: _468  and  _471
REMARK  193  A    between atoms: _471  and  _472
REMARK  194  A    between atoms: _477  and  _479
REMARK  195  A    between atoms: _479  and  _480
REMARK  196  A    between atoms: _479  and  _482
REMARK  197  A    between atoms: _482  and  _483
REMARK  198  A    between atoms: _486  and  _488
REMARK  199  A    between atoms: _488  and  _489
REMARK  200  A    between atoms: _488  and  _491
REMARK  201  A    between atoms: _491  and  _492
REMARK  202  A    between atoms: _495  and  _497
REMARK  203  A    between atoms: _497  and  _498
REMARK  204  A    between atoms: _500  and  _502
REMARK  205  A    between atoms: _502  and  _503
REMARK  206  A    between atoms: _502  and  _505
REMARK  207  A    between atoms: _505  and  _506
REMARK  208  A    between atoms: _506  and  _507
REMARK  209  A    between atoms: _507  and  _508
REMARK  210  A    between atoms: _517  and  _519
REMARK  211  A    between atoms: _519  and  _520
REMARK  212  A    between atoms: _519  and  _522
REMARK  213  A    between atoms: _522  and  _523
REMARK                            x       y       z     vdW  Elec       q    Type
REMARK                         _______ _______ _______ _____ _____    ______ ____
ROOT
ATOM      1  O   HOH     1       9.037  34.656  21.329  0.00  0.00    +0.000 OA
ENDROOT
TORSDOF 0
REMARK  Name = ../refined-set-2016/3gi5/3gi5_pocket.pdb
REMARK  213 active torsions:
REMARK  status: ('A' for Active; 'I' for Inactive)
REMARK    1  A    between atoms: _1  and  _3
REMARK    2  A    between atoms: _3  and  _4
REMARK    3  A    between atoms: _3  and  _6
REMARK    4  A    between atoms: _6  and  _7
REMARK    5  A    between atoms: _7  and  _8
REMARK    6  A    between atoms: _8  and  _9
REMARK    7  A    between atoms: _18  and  _20
REMARK    8  A    between atoms: _20  and  _21
REMARK    9  A    between atoms: _20  and  _23
REMARK   10  A    between atoms: _23  and  _24
REMARK   11  A    between atoms: _27  and  _29
REMARK   12  A    between atoms: _29  and  _30
REMARK   13  A    between atoms: _29  and  _32
REMARK   14  A    between atoms: _32  and  _33
REMARK   15  A    between atoms: _36  and  _38
REMARK   16  A    between atoms: _38  and  _39
REMARK   17  A    between atoms: _38  and  _41
REMARK   18  A    between atoms: _41  and  _42
REMARK   19  A    between atoms: _45  and  _47
REMARK   20  A    between atoms: _47  and  _48
REMARK   21  A    between atoms: _47  and  _50
REMARK   22  A    between atoms: _50  and  _51
REMARK   23  A    between atoms: _54  and  _56
REMARK   24  A    between atoms: _56  and  _57
REMARK   25  A    between atoms: _59  and  _61
REMARK   26  A    between atoms: _61  and  _62
REMARK   27  A    between atoms: _65  and  _67
REMARK   28  A    between atoms: _67  and  _68
REMARK   29  A    between atoms: _67  and  _70
REMARK   30  A    between atoms: _70  and  _71
REMARK   31  A    between atoms: _74  and  _76
REMARK   32  A    between atoms: _76  and  _77
REMARK   33  A    between atoms: _76  and  _79
REMARK   34  A    between atoms: _79  and  _80
REMARK   35  A    between atoms: _83  and  _85
REMARK   36  A    between atoms: _85  and  _86
REMARK   37  A    between atoms: _85  and  _88
REMARK   38  A    between atoms: _88  and  _89
REMARK   39  A    between atoms: _92  and  _94
REMARK   40  A    between atoms: _94  and  _95
REMARK   41  A    between atoms: _94  and  _97
REMARK   42  A    between atoms: _100  and  _102
REMARK   43  A    between atoms: _102  and  _103
REMARK   44  A    between atoms: _102  and  _105
REMARK   45  A    between atoms: _105  and  _106
REMARK   46  A    between atoms: _106  and  _107
REMARK   47  A    between atoms: _107  and  _108
REMARK   48  A    between atoms: _108  and  _109
REMARK   49  A    between atoms: _113  and  _115
REMARK   50  A    between atoms: _115  and  _116
REMARK   51  A    between atoms: _115  and  _118
REMARK   52  A    between atoms: _118  and  _119
REMARK   53  A    between atoms: _122  and  _124
REMARK   54  A    between atoms: _124  and  _125
REMARK   55  A    between atoms: _127  and  _129
REMARK   56  A    between atoms: _129  and  _130
REMARK   57  A    between atoms: _132  and  _134
REMARK   58  A    between atoms: _134  and  _135
REMARK   59  A    between atoms: _134  and  _137
REMARK   60  A    between atoms: _137  and  _138
REMARK   61  A    between atoms: _141  and  _143
REMARK   62  A    between atoms: _143  and  _144
REMARK   63  A    between atoms: _146  and  _148
REMARK   64  A    between atoms: _148  and  _149
REMARK   65  A    between atoms: _151  and  _153
REMARK   66  A    between atoms: _153  and  _154
REMARK   67  A    between atoms: _153  and  _156
REMARK   68  A    between atoms: _156  and  _157
REMARK   69  A    between atoms: _163  and  _165
REMARK   70  A    between atoms: _165  and  _166
REMARK   71  A    between atoms: _165  and  _168
REMARK   72  A    between atoms: _168  and  _169
REMARK   73  A    between atoms: _173  and  _174
REMARK   74  A    between atoms: _179  and  _181
REMARK   75  A    between atoms: _181  and  _182
REMARK   76  A    between atoms: _181  and  _184
REMARK   77  A    between atoms: _187  and  _189
REMARK   78  A    between atoms: _189  and  _190
REMARK   79  A    between atoms: _189  and  _192
REMARK   80  A    between atoms: _192  and  _193
REMARK   81  A    between atoms: _198  and  _200
REMARK   82  A    between atoms: _200  and  _201
REMARK   83  A    between atoms: _200  and  _203
REMARK   84  A    between atoms: _203  and  _204
REMARK   85  A    between atoms: _207  and  _209
REMARK   86  A    between atoms: _209  and  _210
REMARK   87  A    between atoms: _209  and  _212
REMARK   88  A    between atoms: _212  and  _213
REMARK   89  A    between atoms: _216  and  _218
REMARK   90  A    between atoms: _218  and  _219
REMARK   91  A    between atoms: _221  and  _223
REMARK   92  A    between atoms: _223  and  _224
REMARK   93  A    between atoms: _223  and  _226
REMARK   94  A    between atoms: _226  and  _227
REMARK   95  A    between atoms: _227  and  _228
REMARK   96  A    between atoms: _228  and  _229
REMARK   97  A    between atoms: _238  and  _240
REMARK   98  A    between atoms: _240  and  _241
REMARK   99  A    between atoms: _240  and  _243
REMARK  100  A    between atoms: _243  and  _244
REMARK  101  A    between atoms: _244  and  _245
REMARK  102  A    between atoms: _245  and  _246
REMARK  103  A    between atoms: _255  and  _257
REMARK  104  A    between atoms: _257  and  _258
REMARK  105  A    between atoms: _257  and  _260
REMARK  106  A    between atoms: _260  and  _261
REMARK  107  A    between atoms: _264  and  _266
REMARK  108  A    between atoms: _266  and  _267
REMARK  109  A    between atoms: _266  and  _269
REMARK  110  A    between atoms: _269  and  _270
REMARK  111  A    between atoms: _273  and  _275
REMARK  112  A    between atoms: _275  and  _276
REMARK  113  A    between atoms: _275  and  _278
REMARK  114  A    between atoms: _278  and  _279
REMARK  115  A    between atoms: _282  and  _284
REMARK  116  A    between atoms: _284  and  _285
REMARK  117  A    between atoms: _284  and  _287
REMARK  118  A    between atoms: _287  and  _288
REMARK  119  A    between atoms: _291  and  _293
REMARK  120  A    between atoms: _293  and  _294
REMARK  121  A    between atoms: _296  and  _298
REMARK  122  A    between atoms: _298  and  _299
REMARK  123  A    between atoms: _302  and  _304
REMARK  124  A    between atoms: _304  and  _305
REMARK  125  A    between atoms: _304  and  _307
REMARK  126  A    between atoms: _307  and  _308
REMARK  127  A    between atoms: _311  and  _313
REMARK  128  A    between atoms: _313  and  _314
REMARK  129  A    between atoms: _313  and  _316
REMARK  130  A    between atoms: _316  and  _317
REMARK  131  A    between atoms: _320  and  _322
REMARK  132  A    between atoms: _322  and  _323
REMARK  133  A    between atoms: _322  and  _325
REMARK  134  A    between atoms: _325  and  _326
REMARK  135  A    between atoms: _329  and  _331
REMARK  136  A    between atoms: _331  and  _332
REMARK  137  A    between atoms: _331  and  _334
REMARK  138  A    between atoms: _337  and  _339
REMARK  139  A    between atoms: _339  and  _340
REMARK  140  A    between atoms: _339  and  _342
REMARK  141  A    between atoms: _342  and  _343
REMARK  142  A    between atoms: _343  and  _344
REMARK  143  A    between atoms: _344  and  _345
REMARK  144  A    between atoms: _345  and  _346
REMARK  145  A    between atoms: _350  and  _352
REMARK  146  A    between atoms: _352  and  _353
REMARK  147  A    between atoms: _352  and  _355
REMARK  148  A    between atoms: _355  and  _356
REMARK  149  A    between atoms: _356  and  _357
REMARK  150  A    between atoms: _359  and  _361
REMARK  151  A    between atoms: _361  and  _362
REMARK  152  A    between atoms: _361  and  _364
REMARK  153  A    between atoms: _364  and  _365
REMARK  154  A    between atoms: _368  and  _370
REMARK  155  A    between atoms: _370  and  _371
REMARK  156  A    between atoms: _373  and  _375
REMARK  157  A    between atoms: _375  and  _376
REMARK  158  A    between atoms: _378  and  _380
REMARK  159  A    between atoms: _380  and  _381
REMARK  160  A    between atoms: _380  and  _383
REMARK  161  A    between atoms: _383  and  _384
REMARK  162  A    between atoms: _387  and  _389
REMARK  163  A    between atoms: _389  and  _390
REMARK  164  A    between atoms: _392  and  _394
REMARK  165  A    between atoms: _394  and  _395
REMARK  166  A    between atoms: _397  and  _399
REMARK  167  A    between atoms: _399  and  _400
REMARK  168  A    between atoms: _399  and  _402
REMARK  169  A    between atoms: _402  and  _403
REMARK  170  A    between atoms: _409  and  _411
REMARK  171  A    between atoms: _411  and  _412
REMARK  172  A    between atoms: _411  and  _414
REMARK  173  A    between atoms: _414  and  _415
REMARK  174  A    between atoms: _418  and  _420
REMARK  175  A    between atoms: _420  and  _421
REMARK  176  A    between atoms: _420  and  _423
REMARK  177  A    between atoms: _426  and  _428
REMARK  178  A    between atoms: _428  and  _429
REMARK  179  A    between atoms: _428  and  _431
REMARK  180  A    between atoms: _431  and  _432
REMARK  181  A    between atoms: _436  and  _437
REMARK  182  A    between atoms: _442  and  _444
REMARK  183  A    between atoms: _444  and  _445
REMARK  184  A    between atoms: _444  and  _447
REMARK  185  A    between atoms: _447  and  _448
REMARK  186  A    between atoms: _452  and  _453
REMARK  187  A    between atoms: _458  and  _460
REMARK  188  A    between atoms: _460  and  _461
REMARK  189  A    between atoms: _460  and  _463
REMARK  190  A    between atoms: _466  and  _468
REMARK  191  A    between atoms: _468  and  _469
REMARK  192  A    between atoms: _468  and  _471
REMARK  193  A    between atoms: _471  and  _472
REMARK  194  A    between atoms: _477  and  _479
REMARK  195  A    between atoms: _479  and  _480
REMARK  196  A    between atoms: _479  and  _482
REMARK  197  A    between atoms: _482  and  _483
REMARK  198  A    between atoms: _486  and  _488
REMARK  199  A    between atoms: _488  and  _489
REMARK  200  A    between atoms: _488  and  _491
REMARK  201  A    between atoms: _491  and  _492
REMARK  202  A    between atoms: _495  and  _497
REMARK  203  A    between atoms: _497  and  _498
REMARK  204  A    between atoms: _500  and  _502
REMARK  205  A    between atoms: _502  and  _503
REMARK  206  A    between atoms: _502  and  _505
REMARK  207  A    between atoms: _505  and  _506
REMARK  208  A    between atoms: _506  and  _507
REMARK  209  A    between atoms: _507  and  _508
REMARK  210  A    between atoms: _517  and  _519
REMARK  211  A    between atoms: _519  and  _520
REMARK  212  A    between atoms: _519  and  _522
REMARK  213  A    between atoms: _522  and  _523
REMARK                            x       y       z     vdW  Elec       q    Type
REMARK                         _______ _______ _______ _____ _____    ______ ____
ROOT
ATOM      1  O   HOH     1      17.765  23.710   8.504  0.00  0.00    +0.000 OA
ENDROOT
TORSDOF 0
REMARK  Name = ../refined-set-2016/3gi5/3gi5_pocket.pdb
REMARK  213 active torsions:
REMARK  status: ('A' for Active; 'I' for Inactive)
REMARK    1  A    between atoms: _1  and  _3
REMARK    2  A    between atoms: _3  and  _4
REMARK    3  A    between atoms: _3  and  _6
REMARK    4  A    between atoms: _6  and  _7
REMARK    5  A    between atoms: _7  and  _8
REMARK    6  A    between atoms: _8  and  _9
REMARK    7  A    between atoms: _18  and  _20
REMARK    8  A    between atoms: _20  and  _21
REMARK    9  A    between atoms: _20  and  _23
REMARK   10  A    between atoms: _23  and  _24
REMARK   11  A    between atoms: _27  and  _29
REMARK   12  A    between atoms: _29  and  _30
REMARK   13  A    between atoms: _29  and  _32
REMARK   14  A    between atoms: _32  and  _33
REMARK   15  A    between atoms: _36  and  _38
REMARK   16  A    between atoms: _38  and  _39
REMARK   17  A    between atoms: _38  and  _41
REMARK   18  A    between atoms: _41  and  _42
REMARK   19  A    between atoms: _45  and  _47
REMARK   20  A    between atoms: _47  and  _48
REMARK   21  A    between atoms: _47  and  _50
REMARK   22  A    between atoms: _50  and  _51
REMARK   23  A    between atoms: _54  and  _56
REMARK   24  A    between atoms: _56  and  _57
REMARK   25  A    between atoms: _59  and  _61
REMARK   26  A    between atoms: _61  and  _62
REMARK   27  A    between atoms: _65  and  _67
REMARK   28  A    between atoms: _67  and  _68
REMARK   29  A    between atoms: _67  and  _70
REMARK   30  A    between atoms: _70  and  _71
REMARK   31  A    between atoms: _74  and  _76
REMARK   32  A    between atoms: _76  and  _77
REMARK   33  A    between atoms: _76  and  _79
REMARK   34  A    between atoms: _79  and  _80
REMARK   35  A    between atoms: _83  and  _85
REMARK   36  A    between atoms: _85  and  _86
REMARK   37  A    between atoms: _85  and  _88
REMARK   38  A    between atoms: _88  and  _89
REMARK   39  A    between atoms: _92  and  _94
REMARK   40  A    between atoms: _94  and  _95
REMARK   41  A    between atoms: _94  and  _97
REMARK   42  A    between atoms: _100  and  _102
REMARK   43  A    between atoms: _102  and  _103
REMARK   44  A    between atoms: _102  and  _105
REMARK   45  A    between atoms: _105  and  _106
REMARK   46  A    between atoms: _106  and  _107
REMARK   47  A    between atoms: _107  and  _108
REMARK   48  A    between atoms: _108  and  _109
REMARK   49  A    between atoms: _113  and  _115
REMARK   50  A    between atoms: _115  and  _116
REMARK   51  A    between atoms: _115  and  _118
REMARK   52  A    between atoms: _118  and  _119
REMARK   53  A    between atoms: _122  and  _124
REMARK   54  A    between atoms: _124  and  _125
REMARK   55  A    between atoms: _127  and  _129
REMARK   56  A    between atoms: _129  and  _130
REMARK   57  A    between atoms: _132  and  _134
REMARK   58  A    between atoms: _134  and  _135
REMARK   59  A    between atoms: _134  and  _137
REMARK   60  A    between atoms: _137  and  _138
REMARK   61  A    between atoms: _141  and  _143
REMARK   62  A    between atoms: _143  and  _144
REMARK   63  A    between atoms: _146  and  _148
REMARK   64  A    between atoms: _148  and  _149
REMARK   65  A    between atoms: _151  and  _153
REMARK   66  A    between atoms: _153  and  _154
REMARK   67  A    between atoms: _153  and  _156
REMARK   68  A    between atoms: _156  and  _157
REMARK   69  A    between atoms: _163  and  _165
REMARK   70  A    between atoms: _165  and  _166
REMARK   71  A    between atoms: _165  and  _168
REMARK   72  A    between atoms: _168  and  _169
REMARK   73  A    between atoms: _173  and  _174
REMARK   74  A    between atoms: _179  and  _181
REMARK   75  A    between atoms: _181  and  _182
REMARK   76  A    between atoms: _181  and  _184
REMARK   77  A    between atoms: _187  and  _189
REMARK   78  A    between atoms: _189  and  _190
REMARK   79  A    between atoms: _189  and  _192
REMARK   80  A    between atoms: _192  and  _193
REMARK   81  A    between atoms: _198  and  _200
REMARK   82  A    between atoms: _200  and  _201
REMARK   83  A    between atoms: _200  and  _203
REMARK   84  A    between atoms: _203  and  _204
REMARK   85  A    between atoms: _207  and  _209
REMARK   86  A    between atoms: _209  and  _210
REMARK   87  A    between atoms: _209  and  _212
REMARK   88  A    between atoms: _212  and  _213
REMARK   89  A    between atoms: _216  and  _218
REMARK   90  A    between atoms: _218  and  _219
REMARK   91  A    between atoms: _221  and  _223
REMARK   92  A    between atoms: _223  and  _224
REMARK   93  A    between atoms: _223  and  _226
REMARK   94  A    between atoms: _226  and  _227
REMARK   95  A    between atoms: _227  and  _228
REMARK   96  A    between atoms: _228  and  _229
REMARK   97  A    between atoms: _238  and  _240
REMARK   98  A    between atoms: _240  and  _241
REMARK   99  A    between atoms: _240  and  _243
REMARK  100  A    between atoms: _243  and  _244
REMARK  101  A    between atoms: _244  and  _245
REMARK  102  A    between atoms: _245  and  _246
REMARK  103  A    between atoms: _255  and  _257
REMARK  104  A    between atoms: _257  and  _258
REMARK  105  A    between atoms: _257  and  _260
REMARK  106  A    between atoms: _260  and  _261
REMARK  107  A    between atoms: _264  and  _266
REMARK  108  A    between atoms: _266  and  _267
REMARK  109  A    between atoms: _266  and  _269
REMARK  110  A    between atoms: _269  and  _270
REMARK  111  A    between atoms: _273  and  _275
REMARK  112  A    between atoms: _275  and  _276
REMARK  113  A    between atoms: _275  and  _278
REMARK  114  A    between atoms: _278  and  _279
REMARK  115  A    between atoms: _282  and  _284
REMARK  116  A    between atoms: _284  and  _285
REMARK  117  A    between atoms: _284  and  _287
REMARK  118  A    between atoms: _287  and  _288
REMARK  119  A    between atoms: _291  and  _293
REMARK  120  A    between atoms: _293  and  _294
REMARK  121  A    between atoms: _296  and  _298
REMARK  122  A    between atoms: _298  and  _299
REMARK  123  A    between atoms: _302  and  _304
REMARK  124  A    between atoms: _304  and  _305
REMARK  125  A    between atoms: _304  and  _307
REMARK  126  A    between atoms: _307  and  _308
REMARK  127  A    between atoms: _311  and  _313
REMARK  128  A    between atoms: _313  and  _314
REMARK  129  A    between atoms: _313  and  _316
REMARK  130  A    between atoms: _316  and  _317
REMARK  131  A    between atoms: _320  and  _322
REMARK  132  A    between atoms: _322  and  _323
REMARK  133  A    between atoms: _322  and  _325
REMARK  134  A    between atoms: _325  and  _326
REMARK  135  A    between atoms: _329  and  _331
REMARK  136  A    between atoms: _331  and  _332
REMARK  137  A    between atoms: _331  and  _334
REMARK  138  A    between atoms: _337  and  _339
REMARK  139  A    between atoms: _339  and  _340
REMARK  140  A    between atoms: _339  and  _342
REMARK  141  A    between atoms: _342  and  _343
REMARK  142  A    between atoms: _343  and  _344
REMARK  143  A    between atoms: _344  and  _345
REMARK  144  A    between atoms: _345  and  _346
REMARK  145  A    between atoms: _350  and  _352
REMARK  146  A    between atoms: _352  and  _353
REMARK  147  A    between atoms: _352  and  _355
REMARK  148  A    between atoms: _355  and  _356
REMARK  149  A    between atoms: _356  and  _357
REMARK  150  A    between atoms: _359  and  _361
REMARK  151  A    between atoms: _361  and  _362
REMARK  152  A    between atoms: _361  and  _364
REMARK  153  A    between atoms: _364  and  _365
REMARK  154  A    between atoms: _368  and  _370
REMARK  155  A    between atoms: _370  and  _371
REMARK  156  A    between atoms: _373  and  _375
REMARK  157  A    between atoms: _375  and  _376
REMARK  158  A    between atoms: _378  and  _380
REMARK  159  A    between atoms: _380  and  _381
REMARK  160  A    between atoms: _380  and  _383
REMARK  161  A    between atoms: _383  and  _384
REMARK  162  A    between atoms: _387  and  _389
REMARK  163  A    between atoms: _389  and  _390
REMARK  164  A    between atoms: _392  and  _394
REMARK  165  A    between atoms: _394  and  _395
REMARK  166  A    between atoms: _397  and  _399
REMARK  167  A    between atoms: _399  and  _400
REMARK  168  A    between atoms: _399  and  _402
REMARK  169  A    between atoms: _402  and  _403
REMARK  170  A    between atoms: _409  and  _411
REMARK  171  A    between atoms: _411  and  _412
REMARK  172  A    between atoms: _411  and  _414
REMARK  173  A    between atoms: _414  and  _415
REMARK  174  A    between atoms: _418  and  _420
REMARK  175  A    between atoms: _420  and  _421
REMARK  176  A    between atoms: _420  and  _423
REMARK  177  A    between atoms: _426  and  _428
REMARK  178  A    between atoms: _428  and  _429
REMARK  179  A    between atoms: _428  and  _431
REMARK  180  A    between atoms: _431  and  _432
REMARK  181  A    between atoms: _436  and  _437
REMARK  182  A    between atoms: _442  and  _444
REMARK  183  A    between atoms: _444  and  _445
REMARK  184  A    between atoms: _444  and  _447
REMARK  185  A    between atoms: _447  and  _448
REMARK  186  A    between atoms: _452  and  _453
REMARK  187  A    between atoms: _458  and  _460
REMARK  188  A    between atoms: _460  and  _461
REMARK  189  A    between atoms: _460  and  _463
REMARK  190  A    between atoms: _466  and  _468
REMARK  191  A    between atoms: _468  and  _469
REMARK  192  A    between atoms: _468  and  _471
REMARK  193  A    between atoms: _471  and  _472
REMARK  194  A    between atoms: _477  and  _479
REMARK  195  A    between atoms: _479  and  _480
REMARK  196  A    between atoms: _479  and  _482
REMARK  197  A    between atoms: _482  and  _483
REMARK  198  A    between atoms: _486  and  _488
REMARK  199  A    between atoms: _488  and  _489
REMARK  200  A    between atoms: _488  and  _491
REMARK  201  A    between atoms: _491  and  _492
REMARK  202  A    between atoms: _495  and  _497
REMARK  203  A    between atoms: _497  and  _498
REMARK  204  A    between atoms: _500  and  _502
REMARK  205  A    between atoms: _502  and  _503
REMARK  206  A    between atoms: _502  and  _505
REMARK  207  A    between atoms: _505  and  _506
REMARK  208  A    between atoms: _506  and  _507
REMARK  209  A    between atoms: _507  and  _508
REMARK  210  A    between atoms: _517  and  _519
REMARK  211  A    between atoms: _519  and  _520
REMARK  212  A    between atoms: _519  and  _522
REMARK  213  A    between atoms: _522  and  _523
REMARK                            x       y       z     vdW  Elec       q    Type
REMARK                         _______ _______ _______ _____ _____    ______ ____
ROOT
ATOM      1  O   HOH     1      10.029  36.451  23.359  0.00  0.00    +0.000 OA
ENDROOT
TORSDOF 0
REMARK  Name = ../refined-set-2016/3gi5/3gi5_pocket.pdb
REMARK  213 active torsions:
REMARK  status: ('A' for Active; 'I' for Inactive)
REMARK    1  A    between atoms: _1  and  _3
REMARK    2  A    between atoms: _3  and  _4
REMARK    3  A    between atoms: _3  and  _6
REMARK    4  A    between atoms: _6  and  _7
REMARK    5  A    between atoms: _7  and  _8
REMARK    6  A    between atoms: _8  and  _9
REMARK    7  A    between atoms: _18  and  _20
REMARK    8  A    between atoms: _20  and  _21
REMARK    9  A    between atoms: _20  and  _23
REMARK   10  A    between atoms: _23  and  _24
REMARK   11  A    between atoms: _27  and  _29
REMARK   12  A    between atoms: _29  and  _30
REMARK   13  A    between atoms: _29  and  _32
REMARK   14  A    between atoms: _32  and  _33
REMARK   15  A    between atoms: _36  and  _38
REMARK   16  A    between atoms: _38  and  _39
REMARK   17  A    between atoms: _38  and  _41
REMARK   18  A    between atoms: _41  and  _42
REMARK   19  A    between atoms: _45  and  _47
REMARK   20  A    between atoms: _47  and  _48
REMARK   21  A    between atoms: _47  and  _50
REMARK   22  A    between atoms: _50  and  _51
REMARK   23  A    between atoms: _54  and  _56
REMARK   24  A    between atoms: _56  and  _57
REMARK   25  A    between atoms: _59  and  _61
REMARK   26  A    between atoms: _61  and  _62
REMARK   27  A    between atoms: _65  and  _67
REMARK   28  A    between atoms: _67  and  _68
REMARK   29  A    between atoms: _67  and  _70
REMARK   30  A    between atoms: _70  and  _71
REMARK   31  A    between atoms: _74  and  _76
REMARK   32  A    between atoms: _76  and  _77
REMARK   33  A    between atoms: _76  and  _79
REMARK   34  A    between atoms: _79  and  _80
REMARK   35  A    between atoms: _83  and  _85
REMARK   36  A    between atoms: _85  and  _86
REMARK   37  A    between atoms: _85  and  _88
REMARK   38  A    between atoms: _88  and  _89
REMARK   39  A    between atoms: _92  and  _94
REMARK   40  A    between atoms: _94  and  _95
REMARK   41  A    between atoms: _94  and  _97
REMARK   42  A    between atoms: _100  and  _102
REMARK   43  A    between atoms: _102  and  _103
REMARK   44  A    between atoms: _102  and  _105
REMARK   45  A    between atoms: _105  and  _106
REMARK   46  A    between atoms: _106  and  _107
REMARK   47  A    between atoms: _107  and  _108
REMARK   48  A    between atoms: _108  and  _109
REMARK   49  A    between atoms: _113  and  _115
REMARK   50  A    between atoms: _115  and  _116
REMARK   51  A    between atoms: _115  and  _118
REMARK   52  A    between atoms: _118  and  _119
REMARK   53  A    between atoms: _122  and  _124
REMARK   54  A    between atoms: _124  and  _125
REMARK   55  A    between atoms: _127  and  _129
REMARK   56  A    between atoms: _129  and  _130
REMARK   57  A    between atoms: _132  and  _134
REMARK   58  A    between atoms: _134  and  _135
REMARK   59  A    between atoms: _134  and  _137
REMARK   60  A    between atoms: _137  and  _138
REMARK   61  A    between atoms: _141  and  _143
REMARK   62  A    between atoms: _143  and  _144
REMARK   63  A    between atoms: _146  and  _148
REMARK   64  A    between atoms: _148  and  _149
REMARK   65  A    between atoms: _151  and  _153
REMARK   66  A    between atoms: _153  and  _154
REMARK   67  A    between atoms: _153  and  _156
REMARK   68  A    between atoms: _156  and  _157
REMARK   69  A    between atoms: _163  and  _165
REMARK   70  A    between atoms: _165  and  _166
REMARK   71  A    between atoms: _165  and  _168
REMARK   72  A    between atoms: _168  and  _169
REMARK   73  A    between atoms: _173  and  _174
REMARK   74  A    between atoms: _179  and  _181
REMARK   75  A    between atoms: _181  and  _182
REMARK   76  A    between atoms: _181  and  _184
REMARK   77  A    between atoms: _187  and  _189
REMARK   78  A    between atoms: _189  and  _190
REMARK   79  A    between atoms: _189  and  _192
REMARK   80  A    between atoms: _192  and  _193
REMARK   81  A    between atoms: _198  and  _200
REMARK   82  A    between atoms: _200  and  _201
REMARK   83  A    between atoms: _200  and  _203
REMARK   84  A    between atoms: _203  and  _204
REMARK   85  A    between atoms: _207  and  _209
REMARK   86  A    between atoms: _209  and  _210
REMARK   87  A    between atoms: _209  and  _212
REMARK   88  A    between atoms: _212  and  _213
REMARK   89  A    between atoms: _216  and  _218
REMARK   90  A    between atoms: _218  and  _219
REMARK   91  A    between atoms: _221  and  _223
REMARK   92  A    between atoms: _223  and  _224
REMARK   93  A    between atoms: _223  and  _226
REMARK   94  A    between atoms: _226  and  _227
REMARK   95  A    between atoms: _227  and  _228
REMARK   96  A    between atoms: _228  and  _229
REMARK   97  A    between atoms: _238  and  _240
REMARK   98  A    between atoms: _240  and  _241
REMARK   99  A    between atoms: _240  and  _243
REMARK  100  A    between atoms: _243  and  _244
REMARK  101  A    between atoms: _244  and  _245
REMARK  102  A    between atoms: _245  and  _246
REMARK  103  A    between atoms: _255  and  _257
REMARK  104  A    between atoms: _257  and  _258
REMARK  105  A    between atoms: _257  and  _260
REMARK  106  A    between atoms: _260  and  _261
REMARK  107  A    between atoms: _264  and  _266
REMARK  108  A    between atoms: _266  and  _267
REMARK  109  A    between atoms: _266  and  _269
REMARK  110  A    between atoms: _269  and  _270
REMARK  111  A    between atoms: _273  and  _275
REMARK  112  A    between atoms: _275  and  _276
REMARK  113  A    between atoms: _275  and  _278
REMARK  114  A    between atoms: _278  and  _279
REMARK  115  A    between atoms: _282  and  _284
REMARK  116  A    between atoms: _284  and  _285
REMARK  117  A    between atoms: _284  and  _287
REMARK  118  A    between atoms: _287  and  _288
REMARK  119  A    between atoms: _291  and  _293
REMARK  120  A    between atoms: _293  and  _294
REMARK  121  A    between atoms: _296  and  _298
REMARK  122  A    between atoms: _298  and  _299
REMARK  123  A    between atoms: _302  and  _304
REMARK  124  A    between atoms: _304  and  _305
REMARK  125  A    between atoms: _304  and  _307
REMARK  126  A    between atoms: _307  and  _308
REMARK  127  A    between atoms: _311  and  _313
REMARK  128  A    between atoms: _313  and  _314
REMARK  129  A    between atoms: _313  and  _316
REMARK  130  A    between atoms: _316  and  _317
REMARK  131  A    between atoms: _320  and  _322
REMARK  132  A    between atoms: _322  and  _323
REMARK  133  A    between atoms: _322  and  _325
REMARK  134  A    between atoms: _325  and  _326
REMARK  135  A    between atoms: _329  and  _331
REMARK  136  A    between atoms: _331  and  _332
REMARK  137  A    between atoms: _331  and  _334
REMARK  138  A    between atoms: _337  and  _339
REMARK  139  A    between atoms: _339  and  _340
REMARK  140  A    between atoms: _339  and  _342
REMARK  141  A    between atoms: _342  and  _343
REMARK  142  A    between atoms: _343  and  _344
REMARK  143  A    between atoms: _344  and  _345
REMARK  144  A    between atoms: _345  and  _346
REMARK  145  A    between atoms: _350  and  _352
REMARK  146  A    between atoms: _352  and  _353
REMARK  147  A    between atoms: _352  and  _355
REMARK  148  A    between atoms: _355  and  _356
REMARK  149  A    between atoms: _356  and  _357
REMARK  150  A    between atoms: _359  and  _361
REMARK  151  A    between atoms: _361  and  _362
REMARK  152  A    between atoms: _361  and  _364
REMARK  153  A    between atoms: _364  and  _365
REMARK  154  A    between atoms: _368  and  _370
REMARK  155  A    between atoms: _370  and  _371
REMARK  156  A    between atoms: _373  and  _375
REMARK  157  A    between atoms: _375  and  _376
REMARK  158  A    between atoms: _378  and  _380
REMARK  159  A    between atoms: _380  and  _381
REMARK  160  A    between atoms: _380  and  _383
REMARK  161  A    between atoms: _383  and  _384
REMARK  162  A    between atoms: _387  and  _389
REMARK  163  A    between atoms: _389  and  _390
REMARK  164  A    between atoms: _392  and  _394
REMARK  165  A    between atoms: _394  and  _395
REMARK  166  A    between atoms: _397  and  _399
REMARK  167  A    between atoms: _399  and  _400
REMARK  168  A    between atoms: _399  and  _402
REMARK  169  A    between atoms: _402  and  _403
REMARK  170  A    between atoms: _409  and  _411
REMARK  171  A    between atoms: _411  and  _412
REMARK  172  A    between atoms: _411  and  _414
REMARK  173  A    between atoms: _414  and  _415
REMARK  174  A    between atoms: _418  and  _420
REMARK  175  A    between atoms: _420  and  _421
REMARK  176  A    between atoms: _420  and  _423
REMARK  177  A    between atoms: _426  and  _428
REMARK  178  A    between atoms: _428  and  _429
REMARK  179  A    between atoms: _428  and  _431
REMARK  180  A    between atoms: _431  and  _432
REMARK  181  A    between atoms: _436  and  _437
REMARK  182  A    between atoms: _442  and  _444
REMARK  183  A    between atoms: _444  and  _445
REMARK  184  A    between atoms: _444  and  _447
REMARK  185  A    between atoms: _447  and  _448
REMARK  186  A    between atoms: _452  and  _453
REMARK  187  A    between atoms: _458  and  _460
REMARK  188  A    between atoms: _460  and  _461
REMARK  189  A    between atoms: _460  and  _463
REMARK  190  A    between atoms: _466  and  _468
REMARK  191  A    between atoms: _468  and  _469
REMARK  192  A    between atoms: _468  and  _471
REMARK  193  A    between atoms: _471  and  _472
REMARK  194  A    between atoms: _477  and  _479
REMARK  195  A    between atoms: _479  and  _480
REMARK  196  A    between atoms: _479  and  _482
REMARK  197  A    between atoms: _482  and  _483
REMARK  198  A    between atoms: _486  and  _488
REMARK  199  A    between atoms: _488  and  _489
REMARK  200  A    between atoms: _488  and  _491
REMARK  201  A    between atoms: _491  and  _492
REMARK  202  A    between atoms: _495  and  _497
REMARK  203  A    between atoms: _497  and  _498
REMARK  204  A    between atoms: _500  and  _502
REMARK  205  A    between atoms: _502  and  _503
REMARK  206  A    between atoms: _502  and  _505
REMARK  207  A    between atoms: _505  and  _506
REMARK  208  A    between atoms: _506  and  _507
REMARK  209  A    between atoms: _507  and  _508
REMARK  210  A    between atoms: _517  and  _519
REMARK  211  A    between atoms: _519  and  _520
REMARK  212  A    between atoms: _519  and  _522
REMARK  213  A    between atoms: _522  and  _523
REMARK                            x       y       z     vdW  Elec       q    Type
REMARK                         _______ _______ _______ _____ _____    ______ ____
ROOT
ATOM      1  O   HOH     1      14.850  20.993  10.921  0.00  0.00    +0.000 OA
ENDROOT
TORSDOF 0
REMARK  Name = ../refined-set-2016/3gi5/3gi5_pocket.pdb
REMARK  213 active torsions:
REMARK  status: ('A' for Active; 'I' for Inactive)
REMARK    1  A    between atoms: _1  and  _3
REMARK    2  A    between atoms: _3  and  _4
REMARK    3  A    between atoms: _3  and  _6
REMARK    4  A    between atoms: _6  and  _7
REMARK    5  A    between atoms: _7  and  _8
REMARK    6  A    between atoms: _8  and  _9
REMARK    7  A    between atoms: _18  and  _20
REMARK    8  A    between atoms: _20  and  _21
REMARK    9  A    between atoms: _20  and  _23
REMARK   10  A    between atoms: _23  and  _24
REMARK   11  A    between atoms: _27  and  _29
REMARK   12  A    between atoms: _29  and  _30
REMARK   13  A    between atoms: _29  and  _32
REMARK   14  A    between atoms: _32  and  _33
REMARK   15  A    between atoms: _36  and  _38
REMARK   16  A    between atoms: _38  and  _39
REMARK   17  A    between atoms: _38  and  _41
REMARK   18  A    between atoms: _41  and  _42
REMARK   19  A    between atoms: _45  and  _47
REMARK   20  A    between atoms: _47  and  _48
REMARK   21  A    between atoms: _47  and  _50
REMARK   22  A    between atoms: _50  and  _51
REMARK   23  A    between atoms: _54  and  _56
REMARK   24  A    between atoms: _56  and  _57
REMARK   25  A    between atoms: _59  and  _61
REMARK   26  A    between atoms: _61  and  _62
REMARK   27  A    between atoms: _65  and  _67
REMARK   28  A    between atoms: _67  and  _68
REMARK   29  A    between atoms: _67  and  _70
REMARK   30  A    between atoms: _70  and  _71
REMARK   31  A    between atoms: _74  and  _76
REMARK   32  A    between atoms: _76  and  _77
REMARK   33  A    between atoms: _76  and  _79
REMARK   34  A    between atoms: _79  and  _80
REMARK   35  A    between atoms: _83  and  _85
REMARK   36  A    between atoms: _85  and  _86
REMARK   37  A    between atoms: _85  and  _88
REMARK   38  A    between atoms: _88  and  _89
REMARK   39  A    between atoms: _92  and  _94
REMARK   40  A    between atoms: _94  and  _95
REMARK   41  A    between atoms: _94  and  _97
REMARK   42  A    between atoms: _100  and  _102
REMARK   43  A    between atoms: _102  and  _103
REMARK   44  A    between atoms: _102  and  _105
REMARK   45  A    between atoms: _105  and  _106
REMARK   46  A    between atoms: _106  and  _107
REMARK   47  A    between atoms: _107  and  _108
REMARK   48  A    between atoms: _108  and  _109
REMARK   49  A    between atoms: _113  and  _115
REMARK   50  A    between atoms: _115  and  _116
REMARK   51  A    between atoms: _115  and  _118
REMARK   52  A    between atoms: _118  and  _119
REMARK   53  A    between atoms: _122  and  _124
REMARK   54  A    between atoms: _124  and  _125
REMARK   55  A    between atoms: _127  and  _129
REMARK   56  A    between atoms: _129  and  _130
REMARK   57  A    between atoms: _132  and  _134
REMARK   58  A    between atoms: _134  and  _135
REMARK   59  A    between atoms: _134  and  _137
REMARK   60  A    between atoms: _137  and  _138
REMARK   61  A    between atoms: _141  and  _143
REMARK   62  A    between atoms: _143  and  _144
REMARK   63  A    between atoms: _146  and  _148
REMARK   64  A    between atoms: _148  and  _149
REMARK   65  A    between atoms: _151  and  _153
REMARK   66  A    between atoms: _153  and  _154
REMARK   67  A    between atoms: _153  and  _156
REMARK   68  A    between atoms: _156  and  _157
REMARK   69  A    between atoms: _163  and  _165
REMARK   70  A    between atoms: _165  and  _166
REMARK   71  A    between atoms: _165  and  _168
REMARK   72  A    between atoms: _168  and  _169
REMARK   73  A    between atoms: _173  and  _174
REMARK   74  A    between atoms: _179  and  _181
REMARK   75  A    between atoms: _181  and  _182
REMARK   76  A    between atoms: _181  and  _184
REMARK   77  A    between atoms: _187  and  _189
REMARK   78  A    between atoms: _189  and  _190
REMARK   79  A    between atoms: _189  and  _192
REMARK   80  A    between atoms: _192  and  _193
REMARK   81  A    between atoms: _198  and  _200
REMARK   82  A    between atoms: _200  and  _201
REMARK   83  A    between atoms: _200  and  _203
REMARK   84  A    between atoms: _203  and  _204
REMARK   85  A    between atoms: _207  and  _209
REMARK   86  A    between atoms: _209  and  _210
REMARK   87  A    between atoms: _209  and  _212
REMARK   88  A    between atoms: _212  and  _213
REMARK   89  A    between atoms: _216  and  _218
REMARK   90  A    between atoms: _218  and  _219
REMARK   91  A    between atoms: _221  and  _223
REMARK   92  A    between atoms: _223  and  _224
REMARK   93  A    between atoms: _223  and  _226
REMARK   94  A    between atoms: _226  and  _227
REMARK   95  A    between atoms: _227  and  _228
REMARK   96  A    between atoms: _228  and  _229
REMARK   97  A    between atoms: _238  and  _240
REMARK   98  A    between atoms: _240  and  _241
REMARK   99  A    between atoms: _240  and  _243
REMARK  100  A    between atoms: _243  and  _244
REMARK  101  A    between atoms: _244  and  _245
REMARK  102  A    between atoms: _245  and  _246
REMARK  103  A    between atoms: _255  and  _257
REMARK  104  A    between atoms: _257  and  _258
REMARK  105  A    between atoms: _257  and  _260
REMARK  106  A    between atoms: _260  and  _261
REMARK  107  A    between atoms: _264  and  _266
REMARK  108  A    between atoms: _266  and  _267
REMARK  109  A    between atoms: _266  and  _269
REMARK  110  A    between atoms: _269  and  _270
REMARK  111  A    between atoms: _273  and  _275
REMARK  112  A    between atoms: _275  and  _276
REMARK  113  A    between atoms: _275  and  _278
REMARK  114  A    between atoms: _278  and  _279
REMARK  115  A    between atoms: _282  and  _284
REMARK  116  A    between atoms: _284  and  _285
REMARK  117  A    between atoms: _284  and  _287
REMARK  118  A    between atoms: _287  and  _288
REMARK  119  A    between atoms: _291  and  _293
REMARK  120  A    between atoms: _293  and  _294
REMARK  121  A    between atoms: _296  and  _298
REMARK  122  A    between atoms: _298  and  _299
REMARK  123  A    between atoms: _302  and  _304
REMARK  124  A    between atoms: _304  and  _305
REMARK  125  A    between atoms: _304  and  _307
REMARK  126  A    between atoms: _307  and  _308
REMARK  127  A    between atoms: _311  and  _313
REMARK  128  A    between atoms: _313  and  _314
REMARK  129  A    between atoms: _313  and  _316
REMARK  130  A    between atoms: _316  and  _317
REMARK  131  A    between atoms: _320  and  _322
REMARK  132  A    between atoms: _322  and  _323
REMARK  133  A    between atoms: _322  and  _325
REMARK  134  A    between atoms: _325  and  _326
REMARK  135  A    between atoms: _329  and  _331
REMARK  136  A    between atoms: _331  and  _332
REMARK  137  A    between atoms: _331  and  _334
REMARK  138  A    between atoms: _337  and  _339
REMARK  139  A    between atoms: _339  and  _340
REMARK  140  A    between atoms: _339  and  _342
REMARK  141  A    between atoms: _342  and  _343
REMARK  142  A    between atoms: _343  and  _344
REMARK  143  A    between atoms: _344  and  _345
REMARK  144  A    between atoms: _345  and  _346
REMARK  145  A    between atoms: _350  and  _352
REMARK  146  A    between atoms: _352  and  _353
REMARK  147  A    between atoms: _352  and  _355
REMARK  148  A    between atoms: _355  and  _356
REMARK  149  A    between atoms: _356  and  _357
REMARK  150  A    between atoms: _359  and  _361
REMARK  151  A    between atoms: _361  and  _362
REMARK  152  A    between atoms: _361  and  _364
REMARK  153  A    between atoms: _364  and  _365
REMARK  154  A    between atoms: _368  and  _370
REMARK  155  A    between atoms: _370  and  _371
REMARK  156  A    between atoms: _373  and  _375
REMARK  157  A    between atoms: _375  and  _376
REMARK  158  A    between atoms: _378  and  _380
REMARK  159  A    between atoms: _380  and  _381
REMARK  160  A    between atoms: _380  and  _383
REMARK  161  A    between atoms: _383  and  _384
REMARK  162  A    between atoms: _387  and  _389
REMARK  163  A    between atoms: _389  and  _390
REMARK  164  A    between atoms: _392  and  _394
REMARK  165  A    between atoms: _394  and  _395
REMARK  166  A    between atoms: _397  and  _399
REMARK  167  A    between atoms: _399  and  _400
REMARK  168  A    between atoms: _399  and  _402
REMARK  169  A    between atoms: _402  and  _403
REMARK  170  A    between atoms: _409  and  _411
REMARK  171  A    between atoms: _411  and  _412
REMARK  172  A    between atoms: _411  and  _414
REMARK  173  A    between atoms: _414  and  _415
REMARK  174  A    between atoms: _418  and  _420
REMARK  175  A    between atoms: _420  and  _421
REMARK  176  A    between atoms: _420  and  _423
REMARK  177  A    between atoms: _426  and  _428
REMARK  178  A    between atoms: _428  and  _429
REMARK  179  A    between atoms: _428  and  _431
REMARK  180  A    between atoms: _431  and  _432
REMARK  181  A    between atoms: _436  and  _437
REMARK  182  A    between atoms: _442  and  _444
REMARK  183  A    between atoms: _444  and  _445
REMARK  184  A    between atoms: _444  and  _447
REMARK  185  A    between atoms: _447  and  _448
REMARK  186  A    between atoms: _452  and  _453
REMARK  187  A    between atoms: _458  and  _460
REMARK  188  A    between atoms: _460  and  _461
REMARK  189  A    between atoms: _460  and  _463
REMARK  190  A    between atoms: _466  and  _468
REMARK  191  A    between atoms: _468  and  _469
REMARK  192  A    between atoms: _468  and  _471
REMARK  193  A    between atoms: _471  and  _472
REMARK  194  A    between atoms: _477  and  _479
REMARK  195  A    between atoms: _479  and  _480
REMARK  196  A    between atoms: _479  and  _482
REMARK  197  A    between atoms: _482  and  _483
REMARK  198  A    between atoms: _486  and  _488
REMARK  199  A    between atoms: _488  and  _489
REMARK  200  A    between atoms: _488  and  _491
REMARK  201  A    between atoms: _491  and  _492
REMARK  202  A    between atoms: _495  and  _497
REMARK  203  A    between atoms: _497  and  _498
REMARK  204  A    between atoms: _500  and  _502
REMARK  205  A    between atoms: _502  and  _503
REMARK  206  A    between atoms: _502  and  _505
REMARK  207  A    between atoms: _505  and  _506
REMARK  208  A    between atoms: _506  and  _507
REMARK  209  A    between atoms: _507  and  _508
REMARK  210  A    between atoms: _517  and  _519
REMARK  211  A    between atoms: _519  and  _520
REMARK  212  A    between atoms: _519  and  _522
REMARK  213  A    between atoms: _522  and  _523
REMARK                            x       y       z     vdW  Elec       q    Type
REMARK                         _______ _______ _______ _____ _____    ______ ____
ROOT
ATOM      1  O   HOH     1      20.588  34.272  21.785  0.00  0.00    +0.000 OA
ENDROOT
TORSDOF 0
REMARK  Name = ../refined-set-2016/3gi5/3gi5_pocket.pdb
REMARK  213 active torsions:
REMARK  status: ('A' for Active; 'I' for Inactive)
REMARK    1  A    between atoms: _1  and  _3
REMARK    2  A    between atoms: _3  and  _4
REMARK    3  A    between atoms: _3  and  _6
REMARK    4  A    between atoms: _6  and  _7
REMARK    5  A    between atoms: _7  and  _8
REMARK    6  A    between atoms: _8  and  _9
REMARK    7  A    between atoms: _18  and  _20
REMARK    8  A    between atoms: _20  and  _21
REMARK    9  A    between atoms: _20  and  _23
REMARK   10  A    between atoms: _23  and  _24
REMARK   11  A    between atoms: _27  and  _29
REMARK   12  A    between atoms: _29  and  _30
REMARK   13  A    between atoms: _29  and  _32
REMARK   14  A    between atoms: _32  and  _33
REMARK   15  A    between atoms: _36  and  _38
REMARK   16  A    between atoms: _38  and  _39
REMARK   17  A    between atoms: _38  and  _41
REMARK   18  A    between atoms: _41  and  _42
REMARK   19  A    between atoms: _45  and  _47
REMARK   20  A    between atoms: _47  and  _48
REMARK   21  A    between atoms: _47  and  _50
REMARK   22  A    between atoms: _50  and  _51
REMARK   23  A    between atoms: _54  and  _56
REMARK   24  A    between atoms: _56  and  _57
REMARK   25  A    between atoms: _59  and  _61
REMARK   26  A    between atoms: _61  and  _62
REMARK   27  A    between atoms: _65  and  _67
REMARK   28  A    between atoms: _67  and  _68
REMARK   29  A    between atoms: _67  and  _70
REMARK   30  A    between atoms: _70  and  _71
REMARK   31  A    between atoms: _74  and  _76
REMARK   32  A    between atoms: _76  and  _77
REMARK   33  A    between atoms: _76  and  _79
REMARK   34  A    between atoms: _79  and  _80
REMARK   35  A    between atoms: _83  and  _85
REMARK   36  A    between atoms: _85  and  _86
REMARK   37  A    between atoms: _85  and  _88
REMARK   38  A    between atoms: _88  and  _89
REMARK   39  A    between atoms: _92  and  _94
REMARK   40  A    between atoms: _94  and  _95
REMARK   41  A    between atoms: _94  and  _97
REMARK   42  A    between atoms: _100  and  _102
REMARK   43  A    between atoms: _102  and  _103
REMARK   44  A    between atoms: _102  and  _105
REMARK   45  A    between atoms: _105  and  _106
REMARK   46  A    between atoms: _106  and  _107
REMARK   47  A    between atoms: _107  and  _108
REMARK   48  A    between atoms: _108  and  _109
REMARK   49  A    between atoms: _113  and  _115
REMARK   50  A    between atoms: _115  and  _116
REMARK   51  A    between atoms: _115  and  _118
REMARK   52  A    between atoms: _118  and  _119
REMARK   53  A    between atoms: _122  and  _124
REMARK   54  A    between atoms: _124  and  _125
REMARK   55  A    between atoms: _127  and  _129
REMARK   56  A    between atoms: _129  and  _130
REMARK   57  A    between atoms: _132  and  _134
REMARK   58  A    between atoms: _134  and  _135
REMARK   59  A    between atoms: _134  and  _137
REMARK   60  A    between atoms: _137  and  _138
REMARK   61  A    between atoms: _141  and  _143
REMARK   62  A    between atoms: _143  and  _144
REMARK   63  A    between atoms: _146  and  _148
REMARK   64  A    between atoms: _148  and  _149
REMARK   65  A    between atoms: _151  and  _153
REMARK   66  A    between atoms: _153  and  _154
REMARK   67  A    between atoms: _153  and  _156
REMARK   68  A    between atoms: _156  and  _157
REMARK   69  A    between atoms: _163  and  _165
REMARK   70  A    between atoms: _165  and  _166
REMARK   71  A    between atoms: _165  and  _168
REMARK   72  A    between atoms: _168  and  _169
REMARK   73  A    between atoms: _173  and  _174
REMARK   74  A    between atoms: _179  and  _181
REMARK   75  A    between atoms: _181  and  _182
REMARK   76  A    between atoms: _181  and  _184
REMARK   77  A    between atoms: _187  and  _189
REMARK   78  A    between atoms: _189  and  _190
REMARK   79  A    between atoms: _189  and  _192
REMARK   80  A    between atoms: _192  and  _193
REMARK   81  A    between atoms: _198  and  _200
REMARK   82  A    between atoms: _200  and  _201
REMARK   83  A    between atoms: _200  and  _203
REMARK   84  A    between atoms: _203  and  _204
REMARK   85  A    between atoms: _207  and  _209
REMARK   86  A    between atoms: _209  and  _210
REMARK   87  A    between atoms: _209  and  _212
REMARK   88  A    between atoms: _212  and  _213
REMARK   89  A    between atoms: _216  and  _218
REMARK   90  A    between atoms: _218  and  _219
REMARK   91  A    between atoms: _221  and  _223
REMARK   92  A    between atoms: _223  and  _224
REMARK   93  A    between atoms: _223  and  _226
REMARK   94  A    between atoms: _226  and  _227
REMARK   95  A    between atoms: _227  and  _228
REMARK   96  A    between atoms: _228  and  _229
REMARK   97  A    between atoms: _238  and  _240
REMARK   98  A    between atoms: _240  and  _241
REMARK   99  A    between atoms: _240  and  _243
REMARK  100  A    between atoms: _243  and  _244
REMARK  101  A    between atoms: _244  and  _245
REMARK  102  A    between atoms: _245  and  _246
REMARK  103  A    between atoms: _255  and  _257
REMARK  104  A    between atoms: _257  and  _258
REMARK  105  A    between atoms: _257  and  _260
REMARK  106  A    between atoms: _260  and  _261
REMARK  107  A    between atoms: _264  and  _266
REMARK  108  A    between atoms: _266  and  _267
REMARK  109  A    between atoms: _266  and  _269
REMARK  110  A    between atoms: _269  and  _270
REMARK  111  A    between atoms: _273  and  _275
REMARK  112  A    between atoms: _275  and  _276
REMARK  113  A    between atoms: _275  and  _278
REMARK  114  A    between atoms: _278  and  _279
REMARK  115  A    between atoms: _282  and  _284
REMARK  116  A    between atoms: _284  and  _285
REMARK  117  A    between atoms: _284  and  _287
REMARK  118  A    between atoms: _287  and  _288
REMARK  119  A    between atoms: _291  and  _293
REMARK  120  A    between atoms: _293  and  _294
REMARK  121  A    between atoms: _296  and  _298
REMARK  122  A    between atoms: _298  and  _299
REMARK  123  A    between atoms: _302  and  _304
REMARK  124  A    between atoms: _304  and  _305
REMARK  125  A    between atoms: _304  and  _307
REMARK  126  A    between atoms: _307  and  _308
REMARK  127  A    between atoms: _311  and  _313
REMARK  128  A    between atoms: _313  and  _314
REMARK  129  A    between atoms: _313  and  _316
REMARK  130  A    between atoms: _316  and  _317
REMARK  131  A    between atoms: _320  and  _322
REMARK  132  A    between atoms: _322  and  _323
REMARK  133  A    between atoms: _322  and  _325
REMARK  134  A    between atoms: _325  and  _326
REMARK  135  A    between atoms: _329  and  _331
REMARK  136  A    between atoms: _331  and  _332
REMARK  137  A    between atoms: _331  and  _334
REMARK  138  A    between atoms: _337  and  _339
REMARK  139  A    between atoms: _339  and  _340
REMARK  140  A    between atoms: _339  and  _342
REMARK  141  A    between atoms: _342  and  _343
REMARK  142  A    between atoms: _343  and  _344
REMARK  143  A    between atoms: _344  and  _345
REMARK  144  A    between atoms: _345  and  _346
REMARK  145  A    between atoms: _350  and  _352
REMARK  146  A    between atoms: _352  and  _353
REMARK  147  A    between atoms: _352  and  _355
REMARK  148  A    between atoms: _355  and  _356
REMARK  149  A    between atoms: _356  and  _357
REMARK  150  A    between atoms: _359  and  _361
REMARK  151  A    between atoms: _361  and  _362
REMARK  152  A    between atoms: _361  and  _364
REMARK  153  A    between atoms: _364  and  _365
REMARK  154  A    between atoms: _368  and  _370
REMARK  155  A    between atoms: _370  and  _371
REMARK  156  A    between atoms: _373  and  _375
REMARK  157  A    between atoms: _375  and  _376
REMARK  158  A    between atoms: _378  and  _380
REMARK  159  A    between atoms: _380  and  _381
REMARK  160  A    between atoms: _380  and  _383
REMARK  161  A    between atoms: _383  and  _384
REMARK  162  A    between atoms: _387  and  _389
REMARK  163  A    between atoms: _389  and  _390
REMARK  164  A    between atoms: _392  and  _394
REMARK  165  A    between atoms: _394  and  _395
REMARK  166  A    between atoms: _397  and  _399
REMARK  167  A    between atoms: _399  and  _400
REMARK  168  A    between atoms: _399  and  _402
REMARK  169  A    between atoms: _402  and  _403
REMARK  170  A    between atoms: _409  and  _411
REMARK  171  A    between atoms: _411  and  _412
REMARK  172  A    between atoms: _411  and  _414
REMARK  173  A    between atoms: _414  and  _415
REMARK  174  A    between atoms: _418  and  _420
REMARK  175  A    between atoms: _420  and  _421
REMARK  176  A    between atoms: _420  and  _423
REMARK  177  A    between atoms: _426  and  _428
REMARK  178  A    between atoms: _428  and  _429
REMARK  179  A    between atoms: _428  and  _431
REMARK  180  A    between atoms: _431  and  _432
REMARK  181  A    between atoms: _436  and  _437
REMARK  182  A    between atoms: _442  and  _444
REMARK  183  A    between atoms: _444  and  _445
REMARK  184  A    between atoms: _444  and  _447
REMARK  185  A    between atoms: _447  and  _448
REMARK  186  A    between atoms: _452  and  _453
REMARK  187  A    between atoms: _458  and  _460
REMARK  188  A    between atoms: _460  and  _461
REMARK  189  A    between atoms: _460  and  _463
REMARK  190  A    between atoms: _466  and  _468
REMARK  191  A    between atoms: _468  and  _469
REMARK  192  A    between atoms: _468  and  _471
REMARK  193  A    between atoms: _471  and  _472
REMARK  194  A    between atoms: _477  and  _479
REMARK  195  A    between atoms: _479  and  _480
REMARK  196  A    between atoms: _479  and  _482
REMARK  197  A    between atoms: _482  and  _483
REMARK  198  A    between atoms: _486  and  _488
REMARK  199  A    between atoms: _488  and  _489
REMARK  200  A    between atoms: _488  and  _491
REMARK  201  A    between atoms: _491  and  _492
REMARK  202  A    between atoms: _495  and  _497
REMARK  203  A    between atoms: _497  and  _498
REMARK  204  A    between atoms: _500  and  _502
REMARK  205  A    between atoms: _502  and  _503
REMARK  206  A    between atoms: _502  and  _505
REMARK  207  A    between atoms: _505  and  _506
REMARK  208  A    between atoms: _506  and  _507
REMARK  209  A    between atoms: _507  and  _508
REMARK  210  A    between atoms: _517  and  _519
REMARK  211  A    between atoms: _519  and  _520
REMARK  212  A    between atoms: _519  and  _522
REMARK  213  A    between atoms: _522  and  _523
REMARK                            x       y       z     vdW  Elec       q    Type
REMARK                         _______ _______ _______ _____ _____    ______ ____
ROOT
ATOM      1  O   HOH     1      20.350  43.483  16.089  0.00  0.00    +0.000 OA
ENDROOT
TORSDOF 0
REMARK  Name = ../refined-set-2016/3gi5/3gi5_pocket.pdb
REMARK  213 active torsions:
REMARK  status: ('A' for Active; 'I' for Inactive)
REMARK    1  A    between atoms: _1  and  _3
REMARK    2  A    between atoms: _3  and  _4
REMARK    3  A    between atoms: _3  and  _6
REMARK    4  A    between atoms: _6  and  _7
REMARK    5  A    between atoms: _7  and  _8
REMARK    6  A    between atoms: _8  and  _9
REMARK    7  A    between atoms: _18  and  _20
REMARK    8  A    between atoms: _20  and  _21
REMARK    9  A    between atoms: _20  and  _23
REMARK   10  A    between atoms: _23  and  _24
REMARK   11  A    between atoms: _27  and  _29
REMARK   12  A    between atoms: _29  and  _30
REMARK   13  A    between atoms: _29  and  _32
REMARK   14  A    between atoms: _32  and  _33
REMARK   15  A    between atoms: _36  and  _38
REMARK   16  A    between atoms: _38  and  _39
REMARK   17  A    between atoms: _38  and  _41
REMARK   18  A    between atoms: _41  and  _42
REMARK   19  A    between atoms: _45  and  _47
REMARK   20  A    between atoms: _47  and  _48
REMARK   21  A    between atoms: _47  and  _50
REMARK   22  A    between atoms: _50  and  _51
REMARK   23  A    between atoms: _54  and  _56
REMARK   24  A    between atoms: _56  and  _57
REMARK   25  A    between atoms: _59  and  _61
REMARK   26  A    between atoms: _61  and  _62
REMARK   27  A    between atoms: _65  and  _67
REMARK   28  A    between atoms: _67  and  _68
REMARK   29  A    between atoms: _67  and  _70
REMARK   30  A    between atoms: _70  and  _71
REMARK   31  A    between atoms: _74  and  _76
REMARK   32  A    between atoms: _76  and  _77
REMARK   33  A    between atoms: _76  and  _79
REMARK   34  A    between atoms: _79  and  _80
REMARK   35  A    between atoms: _83  and  _85
REMARK   36  A    between atoms: _85  and  _86
REMARK   37  A    between atoms: _85  and  _88
REMARK   38  A    between atoms: _88  and  _89
REMARK   39  A    between atoms: _92  and  _94
REMARK   40  A    between atoms: _94  and  _95
REMARK   41  A    between atoms: _94  and  _97
REMARK   42  A    between atoms: _100  and  _102
REMARK   43  A    between atoms: _102  and  _103
REMARK   44  A    between atoms: _102  and  _105
REMARK   45  A    between atoms: _105  and  _106
REMARK   46  A    between atoms: _106  and  _107
REMARK   47  A    between atoms: _107  and  _108
REMARK   48  A    between atoms: _108  and  _109
REMARK   49  A    between atoms: _113  and  _115
REMARK   50  A    between atoms: _115  and  _116
REMARK   51  A    between atoms: _115  and  _118
REMARK   52  A    between atoms: _118  and  _119
REMARK   53  A    between atoms: _122  and  _124
REMARK   54  A    between atoms: _124  and  _125
REMARK   55  A    between atoms: _127  and  _129
REMARK   56  A    between atoms: _129  and  _130
REMARK   57  A    between atoms: _132  and  _134
REMARK   58  A    between atoms: _134  and  _135
REMARK   59  A    between atoms: _134  and  _137
REMARK   60  A    between atoms: _137  and  _138
REMARK   61  A    between atoms: _141  and  _143
REMARK   62  A    between atoms: _143  and  _144
REMARK   63  A    between atoms: _146  and  _148
REMARK   64  A    between atoms: _148  and  _149
REMARK   65  A    between atoms: _151  and  _153
REMARK   66  A    between atoms: _153  and  _154
REMARK   67  A    between atoms: _153  and  _156
REMARK   68  A    between atoms: _156  and  _157
REMARK   69  A    between atoms: _163  and  _165
REMARK   70  A    between atoms: _165  and  _166
REMARK   71  A    between atoms: _165  and  _168
REMARK   72  A    between atoms: _168  and  _169
REMARK   73  A    between atoms: _173  and  _174
REMARK   74  A    between atoms: _179  and  _181
REMARK   75  A    between atoms: _181  and  _182
REMARK   76  A    between atoms: _181  and  _184
REMARK   77  A    between atoms: _187  and  _189
REMARK   78  A    between atoms: _189  and  _190
REMARK   79  A    between atoms: _189  and  _192
REMARK   80  A    between atoms: _192  and  _193
REMARK   81  A    between atoms: _198  and  _200
REMARK   82  A    between atoms: _200  and  _201
REMARK   83  A    between atoms: _200  and  _203
REMARK   84  A    between atoms: _203  and  _204
REMARK   85  A    between atoms: _207  and  _209
REMARK   86  A    between atoms: _209  and  _210
REMARK   87  A    between atoms: _209  and  _212
REMARK   88  A    between atoms: _212  and  _213
REMARK   89  A    between atoms: _216  and  _218
REMARK   90  A    between atoms: _218  and  _219
REMARK   91  A    between atoms: _221  and  _223
REMARK   92  A    between atoms: _223  and  _224
REMARK   93  A    between atoms: _223  and  _226
REMARK   94  A    between atoms: _226  and  _227
REMARK   95  A    between atoms: _227  and  _228
REMARK   96  A    between atoms: _228  and  _229
REMARK   97  A    between atoms: _238  and  _240
REMARK   98  A    between atoms: _240  and  _241
REMARK   99  A    between atoms: _240  and  _243
REMARK  100  A    between atoms: _243  and  _244
REMARK  101  A    between atoms: _244  and  _245
REMARK  102  A    between atoms: _245  and  _246
REMARK  103  A    between atoms: _255  and  _257
REMARK  104  A    between atoms: _257  and  _258
REMARK  105  A    between atoms: _257  and  _260
REMARK  106  A    between atoms: _260  and  _261
REMARK  107  A    between atoms: _264  and  _266
REMARK  108  A    between atoms: _266  and  _267
REMARK  109  A    between atoms: _266  and  _269
REMARK  110  A    between atoms: _269  and  _270
REMARK  111  A    between atoms: _273  and  _275
REMARK  112  A    between atoms: _275  and  _276
REMARK  113  A    between atoms: _275  and  _278
REMARK  114  A    between atoms: _278  and  _279
REMARK  115  A    between atoms: _282  and  _284
REMARK  116  A    between atoms: _284  and  _285
REMARK  117  A    between atoms: _284  and  _287
REMARK  118  A    between atoms: _287  and  _288
REMARK  119  A    between atoms: _291  and  _293
REMARK  120  A    between atoms: _293  and  _294
REMARK  121  A    between atoms: _296  and  _298
REMARK  122  A    between atoms: _298  and  _299
REMARK  123  A    between atoms: _302  and  _304
REMARK  124  A    between atoms: _304  and  _305
REMARK  125  A    between atoms: _304  and  _307
REMARK  126  A    between atoms: _307  and  _308
REMARK  127  A    between atoms: _311  and  _313
REMARK  128  A    between atoms: _313  and  _314
REMARK  129  A    between atoms: _313  and  _316
REMARK  130  A    between atoms: _316  and  _317
REMARK  131  A    between atoms: _320  and  _322
REMARK  132  A    between atoms: _322  and  _323
REMARK  133  A    between atoms: _322  and  _325
REMARK  134  A    between atoms: _325  and  _326
REMARK  135  A    between atoms: _329  and  _331
REMARK  136  A    between atoms: _331  and  _332
REMARK  137  A    between atoms: _331  and  _334
REMARK  138  A    between atoms: _337  and  _339
REMARK  139  A    between atoms: _339  and  _340
REMARK  140  A    between atoms: _339  and  _342
REMARK  141  A    between atoms: _342  and  _343
REMARK  142  A    between atoms: _343  and  _344
REMARK  143  A    between atoms: _344  and  _345
REMARK  144  A    between atoms: _345  and  _346
REMARK  145  A    between atoms: _350  and  _352
REMARK  146  A    between atoms: _352  and  _353
REMARK  147  A    between atoms: _352  and  _355
REMARK  148  A    between atoms: _355  and  _356
REMARK  149  A    between atoms: _356  and  _357
REMARK  150  A    between atoms: _359  and  _361
REMARK  151  A    between atoms: _361  and  _362
REMARK  152  A    between atoms: _361  and  _364
REMARK  153  A    between atoms: _364  and  _365
REMARK  154  A    between atoms: _368  and  _370
REMARK  155  A    between atoms: _370  and  _371
REMARK  156  A    between atoms: _373  and  _375
REMARK  157  A    between atoms: _375  and  _376
REMARK  158  A    between atoms: _378  and  _380
REMARK  159  A    between atoms: _380  and  _381
REMARK  160  A    between atoms: _380  and  _383
REMARK  161  A    between atoms: _383  and  _384
REMARK  162  A    between atoms: _387  and  _389
REMARK  163  A    between atoms: _389  and  _390
REMARK  164  A    between atoms: _392  and  _394
REMARK  165  A    between atoms: _394  and  _395
REMARK  166  A    between atoms: _397  and  _399
REMARK  167  A    between atoms: _399  and  _400
REMARK  168  A    between atoms: _399  and  _402
REMARK  169  A    between atoms: _402  and  _403
REMARK  170  A    between atoms: _409  and  _411
REMARK  171  A    between atoms: _411  and  _412
REMARK  172  A    between atoms: _411  and  _414
REMARK  173  A    between atoms: _414  and  _415
REMARK  174  A    between atoms: _418  and  _420
REMARK  175  A    between atoms: _420  and  _421
REMARK  176  A    between atoms: _420  and  _423
REMARK  177  A    between atoms: _426  and  _428
REMARK  178  A    between atoms: _428  and  _429
REMARK  179  A    between atoms: _428  and  _431
REMARK  180  A    between atoms: _431  and  _432
REMARK  181  A    between atoms: _436  and  _437
REMARK  182  A    between atoms: _442  and  _444
REMARK  183  A    between atoms: _444  and  _445
REMARK  184  A    between atoms: _444  and  _447
REMARK  185  A    between atoms: _447  and  _448
REMARK  186  A    between atoms: _452  and  _453
REMARK  187  A    between atoms: _458  and  _460
REMARK  188  A    between atoms: _460  and  _461
REMARK  189  A    between atoms: _460  and  _463
REMARK  190  A    between atoms: _466  and  _468
REMARK  191  A    between atoms: _468  and  _469
REMARK  192  A    between atoms: _468  and  _471
REMARK  193  A    between atoms: _471  and  _472
REMARK  194  A    between atoms: _477  and  _479
REMARK  195  A    between atoms: _479  and  _480
REMARK  196  A    between atoms: _479  and  _482
REMARK  197  A    between atoms: _482  and  _483
REMARK  198  A    between atoms: _486  and  _488
REMARK  199  A    between atoms: _488  and  _489
REMARK  200  A    between atoms: _488  and  _491
REMARK  201  A    between atoms: _491  and  _492
REMARK  202  A    between atoms: _495  and  _497
REMARK  203  A    between atoms: _497  and  _498
REMARK  204  A    between atoms: _500  and  _502
REMARK  205  A    between atoms: _502  and  _503
REMARK  206  A    between atoms: _502  and  _505
REMARK  207  A    between atoms: _505  and  _506
REMARK  208  A    between atoms: _506  and  _507
REMARK  209  A    between atoms: _507  and  _508
REMARK  210  A    between atoms: _517  and  _519
REMARK  211  A    between atoms: _519  and  _520
REMARK  212  A    between atoms: _519  and  _522
REMARK  213  A    between atoms: _522  and  _523
REMARK                            x       y       z     vdW  Elec       q    Type
REMARK                         _______ _______ _______ _____ _____    ______ ____
ROOT
ATOM      1  O   HOH     1      18.248  21.031   5.547  0.00  0.00    +0.000 OA
ENDROOT
TORSDOF 0
REMARK  Name = ../refined-set-2016/3gi5/3gi5_pocket.pdb
REMARK  213 active torsions:
REMARK  status: ('A' for Active; 'I' for Inactive)
REMARK    1  A    between atoms: _1  and  _3
REMARK    2  A    between atoms: _3  and  _4
REMARK    3  A    between atoms: _3  and  _6
REMARK    4  A    between atoms: _6  and  _7
REMARK    5  A    between atoms: _7  and  _8
REMARK    6  A    between atoms: _8  and  _9
REMARK    7  A    between atoms: _18  and  _20
REMARK    8  A    between atoms: _20  and  _21
REMARK    9  A    between atoms: _20  and  _23
REMARK   10  A    between atoms: _23  and  _24
REMARK   11  A    between atoms: _27  and  _29
REMARK   12  A    between atoms: _29  and  _30
REMARK   13  A    between atoms: _29  and  _32
REMARK   14  A    between atoms: _32  and  _33
REMARK   15  A    between atoms: _36  and  _38
REMARK   16  A    between atoms: _38  and  _39
REMARK   17  A    between atoms: _38  and  _41
REMARK   18  A    between atoms: _41  and  _42
REMARK   19  A    between atoms: _45  and  _47
REMARK   20  A    between atoms: _47  and  _48
REMARK   21  A    between atoms: _47  and  _50
REMARK   22  A    between atoms: _50  and  _51
REMARK   23  A    between atoms: _54  and  _56
REMARK   24  A    between atoms: _56  and  _57
REMARK   25  A    between atoms: _59  and  _61
REMARK   26  A    between atoms: _61  and  _62
REMARK   27  A    between atoms: _65  and  _67
REMARK   28  A    between atoms: _67  and  _68
REMARK   29  A    between atoms: _67  and  _70
REMARK   30  A    between atoms: _70  and  _71
REMARK   31  A    between atoms: _74  and  _76
REMARK   32  A    between atoms: _76  and  _77
REMARK   33  A    between atoms: _76  and  _79
REMARK   34  A    between atoms: _79  and  _80
REMARK   35  A    between atoms: _83  and  _85
REMARK   36  A    between atoms: _85  and  _86
REMARK   37  A    between atoms: _85  and  _88
REMARK   38  A    between atoms: _88  and  _89
REMARK   39  A    between atoms: _92  and  _94
REMARK   40  A    between atoms: _94  and  _95
REMARK   41  A    between atoms: _94  and  _97
REMARK   42  A    between atoms: _100  and  _102
REMARK   43  A    between atoms: _102  and  _103
REMARK   44  A    between atoms: _102  and  _105
REMARK   45  A    between atoms: _105  and  _106
REMARK   46  A    between atoms: _106  and  _107
REMARK   47  A    between atoms: _107  and  _108
REMARK   48  A    between atoms: _108  and  _109
REMARK   49  A    between atoms: _113  and  _115
REMARK   50  A    between atoms: _115  and  _116
REMARK   51  A    between atoms: _115  and  _118
REMARK   52  A    between atoms: _118  and  _119
REMARK   53  A    between atoms: _122  and  _124
REMARK   54  A    between atoms: _124  and  _125
REMARK   55  A    between atoms: _127  and  _129
REMARK   56  A    between atoms: _129  and  _130
REMARK   57  A    between atoms: _132  and  _134
REMARK   58  A    between atoms: _134  and  _135
REMARK   59  A    between atoms: _134  and  _137
REMARK   60  A    between atoms: _137  and  _138
REMARK   61  A    between atoms: _141  and  _143
REMARK   62  A    between atoms: _143  and  _144
REMARK   63  A    between atoms: _146  and  _148
REMARK   64  A    between atoms: _148  and  _149
REMARK   65  A    between atoms: _151  and  _153
REMARK   66  A    between atoms: _153  and  _154
REMARK   67  A    between atoms: _153  and  _156
REMARK   68  A    between atoms: _156  and  _157
REMARK   69  A    between atoms: _163  and  _165
REMARK   70  A    between atoms: _165  and  _166
REMARK   71  A    between atoms: _165  and  _168
REMARK   72  A    between atoms: _168  and  _169
REMARK   73  A    between atoms: _173  and  _174
REMARK   74  A    between atoms: _179  and  _181
REMARK   75  A    between atoms: _181  and  _182
REMARK   76  A    between atoms: _181  and  _184
REMARK   77  A    between atoms: _187  and  _189
REMARK   78  A    between atoms: _189  and  _190
REMARK   79  A    between atoms: _189  and  _192
REMARK   80  A    between atoms: _192  and  _193
REMARK   81  A    between atoms: _198  and  _200
REMARK   82  A    between atoms: _200  and  _201
REMARK   83  A    between atoms: _200  and  _203
REMARK   84  A    between atoms: _203  and  _204
REMARK   85  A    between atoms: _207  and  _209
REMARK   86  A    between atoms: _209  and  _210
REMARK   87  A    between atoms: _209  and  _212
REMARK   88  A    between atoms: _212  and  _213
REMARK   89  A    between atoms: _216  and  _218
REMARK   90  A    between atoms: _218  and  _219
REMARK   91  A    between atoms: _221  and  _223
REMARK   92  A    between atoms: _223  and  _224
REMARK   93  A    between atoms: _223  and  _226
REMARK   94  A    between atoms: _226  and  _227
REMARK   95  A    between atoms: _227  and  _228
REMARK   96  A    between atoms: _228  and  _229
REMARK   97  A    between atoms: _238  and  _240
REMARK   98  A    between atoms: _240  and  _241
REMARK   99  A    between atoms: _240  and  _243
REMARK  100  A    between atoms: _243  and  _244
REMARK  101  A    between atoms: _244  and  _245
REMARK  102  A    between atoms: _245  and  _246
REMARK  103  A    between atoms: _255  and  _257
REMARK  104  A    between atoms: _257  and  _258
REMARK  105  A    between atoms: _257  and  _260
REMARK  106  A    between atoms: _260  and  _261
REMARK  107  A    between atoms: _264  and  _266
REMARK  108  A    between atoms: _266  and  _267
REMARK  109  A    between atoms: _266  and  _269
REMARK  110  A    between atoms: _269  and  _270
REMARK  111  A    between atoms: _273  and  _275
REMARK  112  A    between atoms: _275  and  _276
REMARK  113  A    between atoms: _275  and  _278
REMARK  114  A    between atoms: _278  and  _279
REMARK  115  A    between atoms: _282  and  _284
REMARK  116  A    between atoms: _284  and  _285
REMARK  117  A    between atoms: _284  and  _287
REMARK  118  A    between atoms: _287  and  _288
REMARK  119  A    between atoms: _291  and  _293
REMARK  120  A    between atoms: _293  and  _294
REMARK  121  A    between atoms: _296  and  _298
REMARK  122  A    between atoms: _298  and  _299
REMARK  123  A    between atoms: _302  and  _304
REMARK  124  A    between atoms: _304  and  _305
REMARK  125  A    between atoms: _304  and  _307
REMARK  126  A    between atoms: _307  and  _308
REMARK  127  A    between atoms: _311  and  _313
REMARK  128  A    between atoms: _313  and  _314
REMARK  129  A    between atoms: _313  and  _316
REMARK  130  A    between atoms: _316  and  _317
REMARK  131  A    between atoms: _320  and  _322
REMARK  132  A    between atoms: _322  and  _323
REMARK  133  A    between atoms: _322  and  _325
REMARK  134  A    between atoms: _325  and  _326
REMARK  135  A    between atoms: _329  and  _331
REMARK  136  A    between atoms: _331  and  _332
REMARK  137  A    between atoms: _331  and  _334
REMARK  138  A    between atoms: _337  and  _339
REMARK  139  A    between atoms: _339  and  _340
REMARK  140  A    between atoms: _339  and  _342
REMARK  141  A    between atoms: _342  and  _343
REMARK  142  A    between atoms: _343  and  _344
REMARK  143  A    between atoms: _344  and  _345
REMARK  144  A    between atoms: _345  and  _346
REMARK  145  A    between atoms: _350  and  _352
REMARK  146  A    between atoms: _352  and  _353
REMARK  147  A    between atoms: _352  and  _355
REMARK  148  A    between atoms: _355  and  _356
REMARK  149  A    between atoms: _356  and  _357
REMARK  150  A    between atoms: _359  and  _361
REMARK  151  A    between atoms: _361  and  _362
REMARK  152  A    between atoms: _361  and  _364
REMARK  153  A    between atoms: _364  and  _365
REMARK  154  A    between atoms: _368  and  _370
REMARK  155  A    between atoms: _370  and  _371
REMARK  156  A    between atoms: _373  and  _375
REMARK  157  A    between atoms: _375  and  _376
REMARK  158  A    between atoms: _378  and  _380
REMARK  159  A    between atoms: _380  and  _381
REMARK  160  A    between atoms: _380  and  _383
REMARK  161  A    between atoms: _383  and  _384
REMARK  162  A    between atoms: _387  and  _389
REMARK  163  A    between atoms: _389  and  _390
REMARK  164  A    between atoms: _392  and  _394
REMARK  165  A    between atoms: _394  and  _395
REMARK  166  A    between atoms: _397  and  _399
REMARK  167  A    between atoms: _399  and  _400
REMARK  168  A    between atoms: _399  and  _402
REMARK  169  A    between atoms: _402  and  _403
REMARK  170  A    between atoms: _409  and  _411
REMARK  171  A    between atoms: _411  and  _412
REMARK  172  A    between atoms: _411  and  _414
REMARK  173  A    between atoms: _414  and  _415
REMARK  174  A    between atoms: _418  and  _420
REMARK  175  A    between atoms: _420  and  _421
REMARK  176  A    between atoms: _420  and  _423
REMARK  177  A    between atoms: _426  and  _428
REMARK  178  A    between atoms: _428  and  _429
REMARK  179  A    between atoms: _428  and  _431
REMARK  180  A    between atoms: _431  and  _432
REMARK  181  A    between atoms: _436  and  _437
REMARK  182  A    between atoms: _442  and  _444
REMARK  183  A    between atoms: _444  and  _445
REMARK  184  A    between atoms: _444  and  _447
REMARK  185  A    between atoms: _447  and  _448
REMARK  186  A    between atoms: _452  and  _453
REMARK  187  A    between atoms: _458  and  _460
REMARK  188  A    between atoms: _460  and  _461
REMARK  189  A    between atoms: _460  and  _463
REMARK  190  A    between atoms: _466  and  _468
REMARK  191  A    between atoms: _468  and  _469
REMARK  192  A    between atoms: _468  and  _471
REMARK  193  A    between atoms: _471  and  _472
REMARK  194  A    between atoms: _477  and  _479
REMARK  195  A    between atoms: _479  and  _480
REMARK  196  A    between atoms: _479  and  _482
REMARK  197  A    between atoms: _482  and  _483
REMARK  198  A    between atoms: _486  and  _488
REMARK  199  A    between atoms: _488  and  _489
REMARK  200  A    between atoms: _488  and  _491
REMARK  201  A    between atoms: _491  and  _492
REMARK  202  A    between atoms: _495  and  _497
REMARK  203  A    between atoms: _497  and  _498
REMARK  204  A    between atoms: _500  and  _502
REMARK  205  A    between atoms: _502  and  _503
REMARK  206  A    between atoms: _502  and  _505
REMARK  207  A    between atoms: _505  and  _506
REMARK  208  A    between atoms: _506  and  _507
REMARK  209  A    between atoms: _507  and  _508
REMARK  210  A    between atoms: _517  and  _519
REMARK  211  A    between atoms: _519  and  _520
REMARK  212  A    between atoms: _519  and  _522
REMARK  213  A    between atoms: _522  and  _523
REMARK                            x       y       z     vdW  Elec       q    Type
REMARK                         _______ _______ _______ _____ _____    ______ ____
ROOT
ATOM      1  O   HOH     1      17.418  40.015  16.548  0.00  0.00    +0.000 OA
ENDROOT
TORSDOF 0
REMARK  Name = ../refined-set-2016/3gi5/3gi5_pocket.pdb
REMARK  213 active torsions:
REMARK  status: ('A' for Active; 'I' for Inactive)
REMARK    1  A    between atoms: _1  and  _3
REMARK    2  A    between atoms: _3  and  _4
REMARK    3  A    between atoms: _3  and  _6
REMARK    4  A    between atoms: _6  and  _7
REMARK    5  A    between atoms: _7  and  _8
REMARK    6  A    between atoms: _8  and  _9
REMARK    7  A    between atoms: _18  and  _20
REMARK    8  A    between atoms: _20  and  _21
REMARK    9  A    between atoms: _20  and  _23
REMARK   10  A    between atoms: _23  and  _24
REMARK   11  A    between atoms: _27  and  _29
REMARK   12  A    between atoms: _29  and  _30
REMARK   13  A    between atoms: _29  and  _32
REMARK   14  A    between atoms: _32  and  _33
REMARK   15  A    between atoms: _36  and  _38
REMARK   16  A    between atoms: _38  and  _39
REMARK   17  A    between atoms: _38  and  _41
REMARK   18  A    between atoms: _41  and  _42
REMARK   19  A    between atoms: _45  and  _47
REMARK   20  A    between atoms: _47  and  _48
REMARK   21  A    between atoms: _47  and  _50
REMARK   22  A    between atoms: _50  and  _51
REMARK   23  A    between atoms: _54  and  _56
REMARK   24  A    between atoms: _56  and  _57
REMARK   25  A    between atoms: _59  and  _61
REMARK   26  A    between atoms: _61  and  _62
REMARK   27  A    between atoms: _65  and  _67
REMARK   28  A    between atoms: _67  and  _68
REMARK   29  A    between atoms: _67  and  _70
REMARK   30  A    between atoms: _70  and  _71
REMARK   31  A    between atoms: _74  and  _76
REMARK   32  A    between atoms: _76  and  _77
REMARK   33  A    between atoms: _76  and  _79
REMARK   34  A    between atoms: _79  and  _80
REMARK   35  A    between atoms: _83  and  _85
REMARK   36  A    between atoms: _85  and  _86
REMARK   37  A    between atoms: _85  and  _88
REMARK   38  A    between atoms: _88  and  _89
REMARK   39  A    between atoms: _92  and  _94
REMARK   40  A    between atoms: _94  and  _95
REMARK   41  A    between atoms: _94  and  _97
REMARK   42  A    between atoms: _100  and  _102
REMARK   43  A    between atoms: _102  and  _103
REMARK   44  A    between atoms: _102  and  _105
REMARK   45  A    between atoms: _105  and  _106
REMARK   46  A    between atoms: _106  and  _107
REMARK   47  A    between atoms: _107  and  _108
REMARK   48  A    between atoms: _108  and  _109
REMARK   49  A    between atoms: _113  and  _115
REMARK   50  A    between atoms: _115  and  _116
REMARK   51  A    between atoms: _115  and  _118
REMARK   52  A    between atoms: _118  and  _119
REMARK   53  A    between atoms: _122  and  _124
REMARK   54  A    between atoms: _124  and  _125
REMARK   55  A    between atoms: _127  and  _129
REMARK   56  A    between atoms: _129  and  _130
REMARK   57  A    between atoms: _132  and  _134
REMARK   58  A    between atoms: _134  and  _135
REMARK   59  A    between atoms: _134  and  _137
REMARK   60  A    between atoms: _137  and  _138
REMARK   61  A    between atoms: _141  and  _143
REMARK   62  A    between atoms: _143  and  _144
REMARK   63  A    between atoms: _146  and  _148
REMARK   64  A    between atoms: _148  and  _149
REMARK   65  A    between atoms: _151  and  _153
REMARK   66  A    between atoms: _153  and  _154
REMARK   67  A    between atoms: _153  and  _156
REMARK   68  A    between atoms: _156  and  _157
REMARK   69  A    between atoms: _163  and  _165
REMARK   70  A    between atoms: _165  and  _166
REMARK   71  A    between atoms: _165  and  _168
REMARK   72  A    between atoms: _168  and  _169
REMARK   73  A    between atoms: _173  and  _174
REMARK   74  A    between atoms: _179  and  _181
REMARK   75  A    between atoms: _181  and  _182
REMARK   76  A    between atoms: _181  and  _184
REMARK   77  A    between atoms: _187  and  _189
REMARK   78  A    between atoms: _189  and  _190
REMARK   79  A    between atoms: _189  and  _192
REMARK   80  A    between atoms: _192  and  _193
REMARK   81  A    between atoms: _198  and  _200
REMARK   82  A    between atoms: _200  and  _201
REMARK   83  A    between atoms: _200  and  _203
REMARK   84  A    between atoms: _203  and  _204
REMARK   85  A    between atoms: _207  and  _209
REMARK   86  A    between atoms: _209  and  _210
REMARK   87  A    between atoms: _209  and  _212
REMARK   88  A    between atoms: _212  and  _213
REMARK   89  A    between atoms: _216  and  _218
REMARK   90  A    between atoms: _218  and  _219
REMARK   91  A    between atoms: _221  and  _223
REMARK   92  A    between atoms: _223  and  _224
REMARK   93  A    between atoms: _223  and  _226
REMARK   94  A    between atoms: _226  and  _227
REMARK   95  A    between atoms: _227  and  _228
REMARK   96  A    between atoms: _228  and  _229
REMARK   97  A    between atoms: _238  and  _240
REMARK   98  A    between atoms: _240  and  _241
REMARK   99  A    between atoms: _240  and  _243
REMARK  100  A    between atoms: _243  and  _244
REMARK  101  A    between atoms: _244  and  _245
REMARK  102  A    between atoms: _245  and  _246
REMARK  103  A    between atoms: _255  and  _257
REMARK  104  A    between atoms: _257  and  _258
REMARK  105  A    between atoms: _257  and  _260
REMARK  106  A    between atoms: _260  and  _261
REMARK  107  A    between atoms: _264  and  _266
REMARK  108  A    between atoms: _266  and  _267
REMARK  109  A    between atoms: _266  and  _269
REMARK  110  A    between atoms: _269  and  _270
REMARK  111  A    between atoms: _273  and  _275
REMARK  112  A    between atoms: _275  and  _276
REMARK  113  A    between atoms: _275  and  _278
REMARK  114  A    between atoms: _278  and  _279
REMARK  115  A    between atoms: _282  and  _284
REMARK  116  A    between atoms: _284  and  _285
REMARK  117  A    between atoms: _284  and  _287
REMARK  118  A    between atoms: _287  and  _288
REMARK  119  A    between atoms: _291  and  _293
REMARK  120  A    between atoms: _293  and  _294
REMARK  121  A    between atoms: _296  and  _298
REMARK  122  A    between atoms: _298  and  _299
REMARK  123  A    between atoms: _302  and  _304
REMARK  124  A    between atoms: _304  and  _305
REMARK  125  A    between atoms: _304  and  _307
REMARK  126  A    between atoms: _307  and  _308
REMARK  127  A    between atoms: _311  and  _313
REMARK  128  A    between atoms: _313  and  _314
REMARK  129  A    between atoms: _313  and  _316
REMARK  130  A    between atoms: _316  and  _317
REMARK  131  A    between atoms: _320  and  _322
REMARK  132  A    between atoms: _322  and  _323
REMARK  133  A    between atoms: _322  and  _325
REMARK  134  A    between atoms: _325  and  _326
REMARK  135  A    between atoms: _329  and  _331
REMARK  136  A    between atoms: _331  and  _332
REMARK  137  A    between atoms: _331  and  _334
REMARK  138  A    between atoms: _337  and  _339
REMARK  139  A    between atoms: _339  and  _340
REMARK  140  A    between atoms: _339  and  _342
REMARK  141  A    between atoms: _342  and  _343
REMARK  142  A    between atoms: _343  and  _344
REMARK  143  A    between atoms: _344  and  _345
REMARK  144  A    between atoms: _345  and  _346
REMARK  145  A    between atoms: _350  and  _352
REMARK  146  A    between atoms: _352  and  _353
REMARK  147  A    between atoms: _352  and  _355
REMARK  148  A    between atoms: _355  and  _356
REMARK  149  A    between atoms: _356  and  _357
REMARK  150  A    between atoms: _359  and  _361
REMARK  151  A    between atoms: _361  and  _362
REMARK  152  A    between atoms: _361  and  _364
REMARK  153  A    between atoms: _364  and  _365
REMARK  154  A    between atoms: _368  and  _370
REMARK  155  A    between atoms: _370  and  _371
REMARK  156  A    between atoms: _373  and  _375
REMARK  157  A    between atoms: _375  and  _376
REMARK  158  A    between atoms: _378  and  _380
REMARK  159  A    between atoms: _380  and  _381
REMARK  160  A    between atoms: _380  and  _383
REMARK  161  A    between atoms: _383  and  _384
REMARK  162  A    between atoms: _387  and  _389
REMARK  163  A    between atoms: _389  and  _390
REMARK  164  A    between atoms: _392  and  _394
REMARK  165  A    between atoms: _394  and  _395
REMARK  166  A    between atoms: _397  and  _399
REMARK  167  A    between atoms: _399  and  _400
REMARK  168  A    between atoms: _399  and  _402
REMARK  169  A    between atoms: _402  and  _403
REMARK  170  A    between atoms: _409  and  _411
REMARK  171  A    between atoms: _411  and  _412
REMARK  172  A    between atoms: _411  and  _414
REMARK  173  A    between atoms: _414  and  _415
REMARK  174  A    between atoms: _418  and  _420
REMARK  175  A    between atoms: _420  and  _421
REMARK  176  A    between atoms: _420  and  _423
REMARK  177  A    between atoms: _426  and  _428
REMARK  178  A    between atoms: _428  and  _429
REMARK  179  A    between atoms: _428  and  _431
REMARK  180  A    between atoms: _431  and  _432
REMARK  181  A    between atoms: _436  and  _437
REMARK  182  A    between atoms: _442  and  _444
REMARK  183  A    between atoms: _444  and  _445
REMARK  184  A    between atoms: _444  and  _447
REMARK  185  A    between atoms: _447  and  _448
REMARK  186  A    between atoms: _452  and  _453
REMARK  187  A    between atoms: _458  and  _460
REMARK  188  A    between atoms: _460  and  _461
REMARK  189  A    between atoms: _460  and  _463
REMARK  190  A    between atoms: _466  and  _468
REMARK  191  A    between atoms: _468  and  _469
REMARK  192  A    between atoms: _468  and  _471
REMARK  193  A    between atoms: _471  and  _472
REMARK  194  A    between atoms: _477  and  _479
REMARK  195  A    between atoms: _479  and  _480
REMARK  196  A    between atoms: _479  and  _482
REMARK  197  A    between atoms: _482  and  _483
REMARK  198  A    between atoms: _486  and  _488
REMARK  199  A    between atoms: _488  and  _489
REMARK  200  A    between atoms: _488  and  _491
REMARK  201  A    between atoms: _491  and  _492
REMARK  202  A    between atoms: _495  and  _497
REMARK  203  A    between atoms: _497  and  _498
REMARK  204  A    between atoms: _500  and  _502
REMARK  205  A    between atoms: _502  and  _503
REMARK  206  A    between atoms: _502  and  _505
REMARK  207  A    between atoms: _505  and  _506
REMARK  208  A    between atoms: _506  and  _507
REMARK  209  A    between atoms: _507  and  _508
REMARK  210  A    between atoms: _517  and  _519
REMARK  211  A    between atoms: _519  and  _520
REMARK  212  A    between atoms: _519  and  _522
REMARK  213  A    between atoms: _522  and  _523
REMARK                            x       y       z     vdW  Elec       q    Type
REMARK                         _______ _______ _______ _____ _____    ______ ____
ROOT
ATOM      1  O   HOH     1      13.383  38.457  23.909  0.00  0.00    +0.000 OA
ENDROOT
TORSDOF 0
REMARK  Name = ../refined-set-2016/3gi5/3gi5_pocket.pdb
REMARK  213 active torsions:
REMARK  status: ('A' for Active; 'I' for Inactive)
REMARK    1  A    between atoms: _1  and  _3
REMARK    2  A    between atoms: _3  and  _4
REMARK    3  A    between atoms: _3  and  _6
REMARK    4  A    between atoms: _6  and  _7
REMARK    5  A    between atoms: _7  and  _8
REMARK    6  A    between atoms: _8  and  _9
REMARK    7  A    between atoms: _18  and  _20
REMARK    8  A    between atoms: _20  and  _21
REMARK    9  A    between atoms: _20  and  _23
REMARK   10  A    between atoms: _23  and  _24
REMARK   11  A    between atoms: _27  and  _29
REMARK   12  A    between atoms: _29  and  _30
REMARK   13  A    between atoms: _29  and  _32
REMARK   14  A    between atoms: _32  and  _33
REMARK   15  A    between atoms: _36  and  _38
REMARK   16  A    between atoms: _38  and  _39
REMARK   17  A    between atoms: _38  and  _41
REMARK   18  A    between atoms: _41  and  _42
REMARK   19  A    between atoms: _45  and  _47
REMARK   20  A    between atoms: _47  and  _48
REMARK   21  A    between atoms: _47  and  _50
REMARK   22  A    between atoms: _50  and  _51
REMARK   23  A    between atoms: _54  and  _56
REMARK   24  A    between atoms: _56  and  _57
REMARK   25  A    between atoms: _59  and  _61
REMARK   26  A    between atoms: _61  and  _62
REMARK   27  A    between atoms: _65  and  _67
REMARK   28  A    between atoms: _67  and  _68
REMARK   29  A    between atoms: _67  and  _70
REMARK   30  A    between atoms: _70  and  _71
REMARK   31  A    between atoms: _74  and  _76
REMARK   32  A    between atoms: _76  and  _77
REMARK   33  A    between atoms: _76  and  _79
REMARK   34  A    between atoms: _79  and  _80
REMARK   35  A    between atoms: _83  and  _85
REMARK   36  A    between atoms: _85  and  _86
REMARK   37  A    between atoms: _85  and  _88
REMARK   38  A    between atoms: _88  and  _89
REMARK   39  A    between atoms: _92  and  _94
REMARK   40  A    between atoms: _94  and  _95
REMARK   41  A    between atoms: _94  and  _97
REMARK   42  A    between atoms: _100  and  _102
REMARK   43  A    between atoms: _102  and  _103
REMARK   44  A    between atoms: _102  and  _105
REMARK   45  A    between atoms: _105  and  _106
REMARK   46  A    between atoms: _106  and  _107
REMARK   47  A    between atoms: _107  and  _108
REMARK   48  A    between atoms: _108  and  _109
REMARK   49  A    between atoms: _113  and  _115
REMARK   50  A    between atoms: _115  and  _116
REMARK   51  A    between atoms: _115  and  _118
REMARK   52  A    between atoms: _118  and  _119
REMARK   53  A    between atoms: _122  and  _124
REMARK   54  A    between atoms: _124  and  _125
REMARK   55  A    between atoms: _127  and  _129
REMARK   56  A    between atoms: _129  and  _130
REMARK   57  A    between atoms: _132  and  _134
REMARK   58  A    between atoms: _134  and  _135
REMARK   59  A    between atoms: _134  and  _137
REMARK   60  A    between atoms: _137  and  _138
REMARK   61  A    between atoms: _141  and  _143
REMARK   62  A    between atoms: _143  and  _144
REMARK   63  A    between atoms: _146  and  _148
REMARK   64  A    between atoms: _148  and  _149
REMARK   65  A    between atoms: _151  and  _153
REMARK   66  A    between atoms: _153  and  _154
REMARK   67  A    between atoms: _153  and  _156
REMARK   68  A    between atoms: _156  and  _157
REMARK   69  A    between atoms: _163  and  _165
REMARK   70  A    between atoms: _165  and  _166
REMARK   71  A    between atoms: _165  and  _168
REMARK   72  A    between atoms: _168  and  _169
REMARK   73  A    between atoms: _173  and  _174
REMARK   74  A    between atoms: _179  and  _181
REMARK   75  A    between atoms: _181  and  _182
REMARK   76  A    between atoms: _181  and  _184
REMARK   77  A    between atoms: _187  and  _189
REMARK   78  A    between atoms: _189  and  _190
REMARK   79  A    between atoms: _189  and  _192
REMARK   80  A    between atoms: _192  and  _193
REMARK   81  A    between atoms: _198  and  _200
REMARK   82  A    between atoms: _200  and  _201
REMARK   83  A    between atoms: _200  and  _203
REMARK   84  A    between atoms: _203  and  _204
REMARK   85  A    between atoms: _207  and  _209
REMARK   86  A    between atoms: _209  and  _210
REMARK   87  A    between atoms: _209  and  _212
REMARK   88  A    between atoms: _212  and  _213
REMARK   89  A    between atoms: _216  and  _218
REMARK   90  A    between atoms: _218  and  _219
REMARK   91  A    between atoms: _221  and  _223
REMARK   92  A    between atoms: _223  and  _224
REMARK   93  A    between atoms: _223  and  _226
REMARK   94  A    between atoms: _226  and  _227
REMARK   95  A    between atoms: _227  and  _228
REMARK   96  A    between atoms: _228  and  _229
REMARK   97  A    between atoms: _238  and  _240
REMARK   98  A    between atoms: _240  and  _241
REMARK   99  A    between atoms: _240  and  _243
REMARK  100  A    between atoms: _243  and  _244
REMARK  101  A    between atoms: _244  and  _245
REMARK  102  A    between atoms: _245  and  _246
REMARK  103  A    between atoms: _255  and  _257
REMARK  104  A    between atoms: _257  and  _258
REMARK  105  A    between atoms: _257  and  _260
REMARK  106  A    between atoms: _260  and  _261
REMARK  107  A    between atoms: _264  and  _266
REMARK  108  A    between atoms: _266  and  _267
REMARK  109  A    between atoms: _266  and  _269
REMARK  110  A    between atoms: _269  and  _270
REMARK  111  A    between atoms: _273  and  _275
REMARK  112  A    between atoms: _275  and  _276
REMARK  113  A    between atoms: _275  and  _278
REMARK  114  A    between atoms: _278  and  _279
REMARK  115  A    between atoms: _282  and  _284
REMARK  116  A    between atoms: _284  and  _285
REMARK  117  A    between atoms: _284  and  _287
REMARK  118  A    between atoms: _287  and  _288
REMARK  119  A    between atoms: _291  and  _293
REMARK  120  A    between atoms: _293  and  _294
REMARK  121  A    between atoms: _296  and  _298
REMARK  122  A    between atoms: _298  and  _299
REMARK  123  A    between atoms: _302  and  _304
REMARK  124  A    between atoms: _304  and  _305
REMARK  125  A    between atoms: _304  and  _307
REMARK  126  A    between atoms: _307  and  _308
REMARK  127  A    between atoms: _311  and  _313
REMARK  128  A    between atoms: _313  and  _314
REMARK  129  A    between atoms: _313  and  _316
REMARK  130  A    between atoms: _316  and  _317
REMARK  131  A    between atoms: _320  and  _322
REMARK  132  A    between atoms: _322  and  _323
REMARK  133  A    between atoms: _322  and  _325
REMARK  134  A    between atoms: _325  and  _326
REMARK  135  A    between atoms: _329  and  _331
REMARK  136  A    between atoms: _331  and  _332
REMARK  137  A    between atoms: _331  and  _334
REMARK  138  A    between atoms: _337  and  _339
REMARK  139  A    between atoms: _339  and  _340
REMARK  140  A    between atoms: _339  and  _342
REMARK  141  A    between atoms: _342  and  _343
REMARK  142  A    between atoms: _343  and  _344
REMARK  143  A    between atoms: _344  and  _345
REMARK  144  A    between atoms: _345  and  _346
REMARK  145  A    between atoms: _350  and  _352
REMARK  146  A    between atoms: _352  and  _353
REMARK  147  A    between atoms: _352  and  _355
REMARK  148  A    between atoms: _355  and  _356
REMARK  149  A    between atoms: _356  and  _357
REMARK  150  A    between atoms: _359  and  _361
REMARK  151  A    between atoms: _361  and  _362
REMARK  152  A    between atoms: _361  and  _364
REMARK  153  A    between atoms: _364  and  _365
REMARK  154  A    between atoms: _368  and  _370
REMARK  155  A    between atoms: _370  and  _371
REMARK  156  A    between atoms: _373  and  _375
REMARK  157  A    between atoms: _375  and  _376
REMARK  158  A    between atoms: _378  and  _380
REMARK  159  A    between atoms: _380  and  _381
REMARK  160  A    between atoms: _380  and  _383
REMARK  161  A    between atoms: _383  and  _384
REMARK  162  A    between atoms: _387  and  _389
REMARK  163  A    between atoms: _389  and  _390
REMARK  164  A    between atoms: _392  and  _394
REMARK  165  A    between atoms: _394  and  _395
REMARK  166  A    between atoms: _397  and  _399
REMARK  167  A    between atoms: _399  and  _400
REMARK  168  A    between atoms: _399  and  _402
REMARK  169  A    between atoms: _402  and  _403
REMARK  170  A    between atoms: _409  and  _411
REMARK  171  A    between atoms: _411  and  _412
REMARK  172  A    between atoms: _411  and  _414
REMARK  173  A    between atoms: _414  and  _415
REMARK  174  A    between atoms: _418  and  _420
REMARK  175  A    between atoms: _420  and  _421
REMARK  176  A    between atoms: _420  and  _423
REMARK  177  A    between atoms: _426  and  _428
REMARK  178  A    between atoms: _428  and  _429
REMARK  179  A    between atoms: _428  and  _431
REMARK  180  A    between atoms: _431  and  _432
REMARK  181  A    between atoms: _436  and  _437
REMARK  182  A    between atoms: _442  and  _444
REMARK  183  A    between atoms: _444  and  _445
REMARK  184  A    between atoms: _444  and  _447
REMARK  185  A    between atoms: _447  and  _448
REMARK  186  A    between atoms: _452  and  _453
REMARK  187  A    between atoms: _458  and  _460
REMARK  188  A    between atoms: _460  and  _461
REMARK  189  A    between atoms: _460  and  _463
REMARK  190  A    between atoms: _466  and  _468
REMARK  191  A    between atoms: _468  and  _469
REMARK  192  A    between atoms: _468  and  _471
REMARK  193  A    between atoms: _471  and  _472
REMARK  194  A    between atoms: _477  and  _479
REMARK  195  A    between atoms: _479  and  _480
REMARK  196  A    between atoms: _479  and  _482
REMARK  197  A    between atoms: _482  and  _483
REMARK  198  A    between atoms: _486  and  _488
REMARK  199  A    between atoms: _488  and  _489
REMARK  200  A    between atoms: _488  and  _491
REMARK  201  A    between atoms: _491  and  _492
REMARK  202  A    between atoms: _495  and  _497
REMARK  203  A    between atoms: _497  and  _498
REMARK  204  A    between atoms: _500  and  _502
REMARK  205  A    between atoms: _502  and  _503
REMARK  206  A    between atoms: _502  and  _505
REMARK  207  A    between atoms: _505  and  _506
REMARK  208  A    between atoms: _506  and  _507
REMARK  209  A    between atoms: _507  and  _508
REMARK  210  A    between atoms: _517  and  _519
REMARK  211  A    between atoms: _519  and  _520
REMARK  212  A    between atoms: _519  and  _522
REMARK  213  A    between atoms: _522  and  _523
REMARK                            x       y       z     vdW  Elec       q    Type
REMARK                         _______ _______ _______ _____ _____    ______ ____
ROOT
ATOM      1  O   HOH     1      13.952  34.874  26.017  0.00  0.00    +0.000 OA
ENDROOT
TORSDOF 0
REMARK  Name = ../refined-set-2016/3gi5/3gi5_pocket.pdb
REMARK  213 active torsions:
REMARK  status: ('A' for Active; 'I' for Inactive)
REMARK    1  A    between atoms: _1  and  _3
REMARK    2  A    between atoms: _3  and  _4
REMARK    3  A    between atoms: _3  and  _6
REMARK    4  A    between atoms: _6  and  _7
REMARK    5  A    between atoms: _7  and  _8
REMARK    6  A    between atoms: _8  and  _9
REMARK    7  A    between atoms: _18  and  _20
REMARK    8  A    between atoms: _20  and  _21
REMARK    9  A    between atoms: _20  and  _23
REMARK   10  A    between atoms: _23  and  _24
REMARK   11  A    between atoms: _27  and  _29
REMARK   12  A    between atoms: _29  and  _30
REMARK   13  A    between atoms: _29  and  _32
REMARK   14  A    between atoms: _32  and  _33
REMARK   15  A    between atoms: _36  and  _38
REMARK   16  A    between atoms: _38  and  _39
REMARK   17  A    between atoms: _38  and  _41
REMARK   18  A    between atoms: _41  and  _42
REMARK   19  A    between atoms: _45  and  _47
REMARK   20  A    between atoms: _47  and  _48
REMARK   21  A    between atoms: _47  and  _50
REMARK   22  A    between atoms: _50  and  _51
REMARK   23  A    between atoms: _54  and  _56
REMARK   24  A    between atoms: _56  and  _57
REMARK   25  A    between atoms: _59  and  _61
REMARK   26  A    between atoms: _61  and  _62
REMARK   27  A    between atoms: _65  and  _67
REMARK   28  A    between atoms: _67  and  _68
REMARK   29  A    between atoms: _67  and  _70
REMARK   30  A    between atoms: _70  and  _71
REMARK   31  A    between atoms: _74  and  _76
REMARK   32  A    between atoms: _76  and  _77
REMARK   33  A    between atoms: _76  and  _79
REMARK   34  A    between atoms: _79  and  _80
REMARK   35  A    between atoms: _83  and  _85
REMARK   36  A    between atoms: _85  and  _86
REMARK   37  A    between atoms: _85  and  _88
REMARK   38  A    between atoms: _88  and  _89
REMARK   39  A    between atoms: _92  and  _94
REMARK   40  A    between atoms: _94  and  _95
REMARK   41  A    between atoms: _94  and  _97
REMARK   42  A    between atoms: _100  and  _102
REMARK   43  A    between atoms: _102  and  _103
REMARK   44  A    between atoms: _102  and  _105
REMARK   45  A    between atoms: _105  and  _106
REMARK   46  A    between atoms: _106  and  _107
REMARK   47  A    between atoms: _107  and  _108
REMARK   48  A    between atoms: _108  and  _109
REMARK   49  A    between atoms: _113  and  _115
REMARK   50  A    between atoms: _115  and  _116
REMARK   51  A    between atoms: _115  and  _118
REMARK   52  A    between atoms: _118  and  _119
REMARK   53  A    between atoms: _122  and  _124
REMARK   54  A    between atoms: _124  and  _125
REMARK   55  A    between atoms: _127  and  _129
REMARK   56  A    between atoms: _129  and  _130
REMARK   57  A    between atoms: _132  and  _134
REMARK   58  A    between atoms: _134  and  _135
REMARK   59  A    between atoms: _134  and  _137
REMARK   60  A    between atoms: _137  and  _138
REMARK   61  A    between atoms: _141  and  _143
REMARK   62  A    between atoms: _143  and  _144
REMARK   63  A    between atoms: _146  and  _148
REMARK   64  A    between atoms: _148  and  _149
REMARK   65  A    between atoms: _151  and  _153
REMARK   66  A    between atoms: _153  and  _154
REMARK   67  A    between atoms: _153  and  _156
REMARK   68  A    between atoms: _156  and  _157
REMARK   69  A    between atoms: _163  and  _165
REMARK   70  A    between atoms: _165  and  _166
REMARK   71  A    between atoms: _165  and  _168
REMARK   72  A    between atoms: _168  and  _169
REMARK   73  A    between atoms: _173  and  _174
REMARK   74  A    between atoms: _179  and  _181
REMARK   75  A    between atoms: _181  and  _182
REMARK   76  A    between atoms: _181  and  _184
REMARK   77  A    between atoms: _187  and  _189
REMARK   78  A    between atoms: _189  and  _190
REMARK   79  A    between atoms: _189  and  _192
REMARK   80  A    between atoms: _192  and  _193
REMARK   81  A    between atoms: _198  and  _200
REMARK   82  A    between atoms: _200  and  _201
REMARK   83  A    between atoms: _200  and  _203
REMARK   84  A    between atoms: _203  and  _204
REMARK   85  A    between atoms: _207  and  _209
REMARK   86  A    between atoms: _209  and  _210
REMARK   87  A    between atoms: _209  and  _212
REMARK   88  A    between atoms: _212  and  _213
REMARK   89  A    between atoms: _216  and  _218
REMARK   90  A    between atoms: _218  and  _219
REMARK   91  A    between atoms: _221  and  _223
REMARK   92  A    between atoms: _223  and  _224
REMARK   93  A    between atoms: _223  and  _226
REMARK   94  A    between atoms: _226  and  _227
REMARK   95  A    between atoms: _227  and  _228
REMARK   96  A    between atoms: _228  and  _229
REMARK   97  A    between atoms: _238  and  _240
REMARK   98  A    between atoms: _240  and  _241
REMARK   99  A    between atoms: _240  and  _243
REMARK  100  A    between atoms: _243  and  _244
REMARK  101  A    between atoms: _244  and  _245
REMARK  102  A    between atoms: _245  and  _246
REMARK  103  A    between atoms: _255  and  _257
REMARK  104  A    between atoms: _257  and  _258
REMARK  105  A    between atoms: _257  and  _260
REMARK  106  A    between atoms: _260  and  _261
REMARK  107  A    between atoms: _264  and  _266
REMARK  108  A    between atoms: _266  and  _267
REMARK  109  A    between atoms: _266  and  _269
REMARK  110  A    between atoms: _269  and  _270
REMARK  111  A    between atoms: _273  and  _275
REMARK  112  A    between atoms: _275  and  _276
REMARK  113  A    between atoms: _275  and  _278
REMARK  114  A    between atoms: _278  and  _279
REMARK  115  A    between atoms: _282  and  _284
REMARK  116  A    between atoms: _284  and  _285
REMARK  117  A    between atoms: _284  and  _287
REMARK  118  A    between atoms: _287  and  _288
REMARK  119  A    between atoms: _291  and  _293
REMARK  120  A    between atoms: _293  and  _294
REMARK  121  A    between atoms: _296  and  _298
REMARK  122  A    between atoms: _298  and  _299
REMARK  123  A    between atoms: _302  and  _304
REMARK  124  A    between atoms: _304  and  _305
REMARK  125  A    between atoms: _304  and  _307
REMARK  126  A    between atoms: _307  and  _308
REMARK  127  A    between atoms: _311  and  _313
REMARK  128  A    between atoms: _313  and  _314
REMARK  129  A    between atoms: _313  and  _316
REMARK  130  A    between atoms: _316  and  _317
REMARK  131  A    between atoms: _320  and  _322
REMARK  132  A    between atoms: _322  and  _323
REMARK  133  A    between atoms: _322  and  _325
REMARK  134  A    between atoms: _325  and  _326
REMARK  135  A    between atoms: _329  and  _331
REMARK  136  A    between atoms: _331  and  _332
REMARK  137  A    between atoms: _331  and  _334
REMARK  138  A    between atoms: _337  and  _339
REMARK  139  A    between atoms: _339  and  _340
REMARK  140  A    between atoms: _339  and  _342
REMARK  141  A    between atoms: _342  and  _343
REMARK  142  A    between atoms: _343  and  _344
REMARK  143  A    between atoms: _344  and  _345
REMARK  144  A    between atoms: _345  and  _346
REMARK  145  A    between atoms: _350  and  _352
REMARK  146  A    between atoms: _352  and  _353
REMARK  147  A    between atoms: _352  and  _355
REMARK  148  A    between atoms: _355  and  _356
REMARK  149  A    between atoms: _356  and  _357
REMARK  150  A    between atoms: _359  and  _361
REMARK  151  A    between atoms: _361  and  _362
REMARK  152  A    between atoms: _361  and  _364
REMARK  153  A    between atoms: _364  and  _365
REMARK  154  A    between atoms: _368  and  _370
REMARK  155  A    between atoms: _370  and  _371
REMARK  156  A    between atoms: _373  and  _375
REMARK  157  A    between atoms: _375  and  _376
REMARK  158  A    between atoms: _378  and  _380
REMARK  159  A    between atoms: _380  and  _381
REMARK  160  A    between atoms: _380  and  _383
REMARK  161  A    between atoms: _383  and  _384
REMARK  162  A    between atoms: _387  and  _389
REMARK  163  A    between atoms: _389  and  _390
REMARK  164  A    between atoms: _392  and  _394
REMARK  165  A    between atoms: _394  and  _395
REMARK  166  A    between atoms: _397  and  _399
REMARK  167  A    between atoms: _399  and  _400
REMARK  168  A    between atoms: _399  and  _402
REMARK  169  A    between atoms: _402  and  _403
REMARK  170  A    between atoms: _409  and  _411
REMARK  171  A    between atoms: _411  and  _412
REMARK  172  A    between atoms: _411  and  _414
REMARK  173  A    between atoms: _414  and  _415
REMARK  174  A    between atoms: _418  and  _420
REMARK  175  A    between atoms: _420  and  _421
REMARK  176  A    between atoms: _420  and  _423
REMARK  177  A    between atoms: _426  and  _428
REMARK  178  A    between atoms: _428  and  _429
REMARK  179  A    between atoms: _428  and  _431
REMARK  180  A    between atoms: _431  and  _432
REMARK  181  A    between atoms: _436  and  _437
REMARK  182  A    between atoms: _442  and  _444
REMARK  183  A    between atoms: _444  and  _445
REMARK  184  A    between atoms: _444  and  _447
REMARK  185  A    between atoms: _447  and  _448
REMARK  186  A    between atoms: _452  and  _453
REMARK  187  A    between atoms: _458  and  _460
REMARK  188  A    between atoms: _460  and  _461
REMARK  189  A    between atoms: _460  and  _463
REMARK  190  A    between atoms: _466  and  _468
REMARK  191  A    between atoms: _468  and  _469
REMARK  192  A    between atoms: _468  and  _471
REMARK  193  A    between atoms: _471  and  _472
REMARK  194  A    between atoms: _477  and  _479
REMARK  195  A    between atoms: _479  and  _480
REMARK  196  A    between atoms: _479  and  _482
REMARK  197  A    between atoms: _482  and  _483
REMARK  198  A    between atoms: _486  and  _488
REMARK  199  A    between atoms: _488  and  _489
REMARK  200  A    between atoms: _488  and  _491
REMARK  201  A    between atoms: _491  and  _492
REMARK  202  A    between atoms: _495  and  _497
REMARK  203  A    between atoms: _497  and  _498
REMARK  204  A    between atoms: _500  and  _502
REMARK  205  A    between atoms: _502  and  _503
REMARK  206  A    between atoms: _502  and  _505
REMARK  207  A    between atoms: _505  and  _506
REMARK  208  A    between atoms: _506  and  _507
REMARK  209  A    between atoms: _507  and  _508
REMARK  210  A    between atoms: _517  and  _519
REMARK  211  A    between atoms: _519  and  _520
REMARK  212  A    between atoms: _519  and  _522
REMARK  213  A    between atoms: _522  and  _523
REMARK                            x       y       z     vdW  Elec       q    Type
REMARK                         _______ _______ _______ _____ _____    ______ ____
ROOT
ATOM      1  O   HOH     1      18.482  34.565  19.477  0.00  0.00    +0.000 OA
ENDROOT
TORSDOF 0
REMARK  Name = ../refined-set-2016/3gi5/3gi5_pocket.pdb
REMARK  213 active torsions:
REMARK  status: ('A' for Active; 'I' for Inactive)
REMARK    1  A    between atoms: _1  and  _3
REMARK    2  A    between atoms: _3  and  _4
REMARK    3  A    between atoms: _3  and  _6
REMARK    4  A    between atoms: _6  and  _7
REMARK    5  A    between atoms: _7  and  _8
REMARK    6  A    between atoms: _8  and  _9
REMARK    7  A    between atoms: _18  and  _20
REMARK    8  A    between atoms: _20  and  _21
REMARK    9  A    between atoms: _20  and  _23
REMARK   10  A    between atoms: _23  and  _24
REMARK   11  A    between atoms: _27  and  _29
REMARK   12  A    between atoms: _29  and  _30
REMARK   13  A    between atoms: _29  and  _32
REMARK   14  A    between atoms: _32  and  _33
REMARK   15  A    between atoms: _36  and  _38
REMARK   16  A    between atoms: _38  and  _39
REMARK   17  A    between atoms: _38  and  _41
REMARK   18  A    between atoms: _41  and  _42
REMARK   19  A    between atoms: _45  and  _47
REMARK   20  A    between atoms: _47  and  _48
REMARK   21  A    between atoms: _47  and  _50
REMARK   22  A    between atoms: _50  and  _51
REMARK   23  A    between atoms: _54  and  _56
REMARK   24  A    between atoms: _56  and  _57
REMARK   25  A    between atoms: _59  and  _61
REMARK   26  A    between atoms: _61  and  _62
REMARK   27  A    between atoms: _65  and  _67
REMARK   28  A    between atoms: _67  and  _68
REMARK   29  A    between atoms: _67  and  _70
REMARK   30  A    between atoms: _70  and  _71
REMARK   31  A    between atoms: _74  and  _76
REMARK   32  A    between atoms: _76  and  _77
REMARK   33  A    between atoms: _76  and  _79
REMARK   34  A    between atoms: _79  and  _80
REMARK   35  A    between atoms: _83  and  _85
REMARK   36  A    between atoms: _85  and  _86
REMARK   37  A    between atoms: _85  and  _88
REMARK   38  A    between atoms: _88  and  _89
REMARK   39  A    between atoms: _92  and  _94
REMARK   40  A    between atoms: _94  and  _95
REMARK   41  A    between atoms: _94  and  _97
REMARK   42  A    between atoms: _100  and  _102
REMARK   43  A    between atoms: _102  and  _103
REMARK   44  A    between atoms: _102  and  _105
REMARK   45  A    between atoms: _105  and  _106
REMARK   46  A    between atoms: _106  and  _107
REMARK   47  A    between atoms: _107  and  _108
REMARK   48  A    between atoms: _108  and  _109
REMARK   49  A    between atoms: _113  and  _115
REMARK   50  A    between atoms: _115  and  _116
REMARK   51  A    between atoms: _115  and  _118
REMARK   52  A    between atoms: _118  and  _119
REMARK   53  A    between atoms: _122  and  _124
REMARK   54  A    between atoms: _124  and  _125
REMARK   55  A    between atoms: _127  and  _129
REMARK   56  A    between atoms: _129  and  _130
REMARK   57  A    between atoms: _132  and  _134
REMARK   58  A    between atoms: _134  and  _135
REMARK   59  A    between atoms: _134  and  _137
REMARK   60  A    between atoms: _137  and  _138
REMARK   61  A    between atoms: _141  and  _143
REMARK   62  A    between atoms: _143  and  _144
REMARK   63  A    between atoms: _146  and  _148
REMARK   64  A    between atoms: _148  and  _149
REMARK   65  A    between atoms: _151  and  _153
REMARK   66  A    between atoms: _153  and  _154
REMARK   67  A    between atoms: _153  and  _156
REMARK   68  A    between atoms: _156  and  _157
REMARK   69  A    between atoms: _163  and  _165
REMARK   70  A    between atoms: _165  and  _166
REMARK   71  A    between atoms: _165  and  _168
REMARK   72  A    between atoms: _168  and  _169
REMARK   73  A    between atoms: _173  and  _174
REMARK   74  A    between atoms: _179  and  _181
REMARK   75  A    between atoms: _181  and  _182
REMARK   76  A    between atoms: _181  and  _184
REMARK   77  A    between atoms: _187  and  _189
REMARK   78  A    between atoms: _189  and  _190
REMARK   79  A    between atoms: _189  and  _192
REMARK   80  A    between atoms: _192  and  _193
REMARK   81  A    between atoms: _198  and  _200
REMARK   82  A    between atoms: _200  and  _201
REMARK   83  A    between atoms: _200  and  _203
REMARK   84  A    between atoms: _203  and  _204
REMARK   85  A    between atoms: _207  and  _209
REMARK   86  A    between atoms: _209  and  _210
REMARK   87  A    between atoms: _209  and  _212
REMARK   88  A    between atoms: _212  and  _213
REMARK   89  A    between atoms: _216  and  _218
REMARK   90  A    between atoms: _218  and  _219
REMARK   91  A    between atoms: _221  and  _223
REMARK   92  A    between atoms: _223  and  _224
REMARK   93  A    between atoms: _223  and  _226
REMARK   94  A    between atoms: _226  and  _227
REMARK   95  A    between atoms: _227  and  _228
REMARK   96  A    between atoms: _228  and  _229
REMARK   97  A    between atoms: _238  and  _240
REMARK   98  A    between atoms: _240  and  _241
REMARK   99  A    between atoms: _240  and  _243
REMARK  100  A    between atoms: _243  and  _244
REMARK  101  A    between atoms: _244  and  _245
REMARK  102  A    between atoms: _245  and  _246
REMARK  103  A    between atoms: _255  and  _257
REMARK  104  A    between atoms: _257  and  _258
REMARK  105  A    between atoms: _257  and  _260
REMARK  106  A    between atoms: _260  and  _261
REMARK  107  A    between atoms: _264  and  _266
REMARK  108  A    between atoms: _266  and  _267
REMARK  109  A    between atoms: _266  and  _269
REMARK  110  A    between atoms: _269  and  _270
REMARK  111  A    between atoms: _273  and  _275
REMARK  112  A    between atoms: _275  and  _276
REMARK  113  A    between atoms: _275  and  _278
REMARK  114  A    between atoms: _278  and  _279
REMARK  115  A    between atoms: _282  and  _284
REMARK  116  A    between atoms: _284  and  _285
REMARK  117  A    between atoms: _284  and  _287
REMARK  118  A    between atoms: _287  and  _288
REMARK  119  A    between atoms: _291  and  _293
REMARK  120  A    between atoms: _293  and  _294
REMARK  121  A    between atoms: _296  and  _298
REMARK  122  A    between atoms: _298  and  _299
REMARK  123  A    between atoms: _302  and  _304
REMARK  124  A    between atoms: _304  and  _305
REMARK  125  A    between atoms: _304  and  _307
REMARK  126  A    between atoms: _307  and  _308
REMARK  127  A    between atoms: _311  and  _313
REMARK  128  A    between atoms: _313  and  _314
REMARK  129  A    between atoms: _313  and  _316
REMARK  130  A    between atoms: _316  and  _317
REMARK  131  A    between atoms: _320  and  _322
REMARK  132  A    between atoms: _322  and  _323
REMARK  133  A    between atoms: _322  and  _325
REMARK  134  A    between atoms: _325  and  _326
REMARK  135  A    between atoms: _329  and  _331
REMARK  136  A    between atoms: _331  and  _332
REMARK  137  A    between atoms: _331  and  _334
REMARK  138  A    between atoms: _337  and  _339
REMARK  139  A    between atoms: _339  and  _340
REMARK  140  A    between atoms: _339  and  _342
REMARK  141  A    between atoms: _342  and  _343
REMARK  142  A    between atoms: _343  and  _344
REMARK  143  A    between atoms: _344  and  _345
REMARK  144  A    between atoms: _345  and  _346
REMARK  145  A    between atoms: _350  and  _352
REMARK  146  A    between atoms: _352  and  _353
REMARK  147  A    between atoms: _352  and  _355
REMARK  148  A    between atoms: _355  and  _356
REMARK  149  A    between atoms: _356  and  _357
REMARK  150  A    between atoms: _359  and  _361
REMARK  151  A    between atoms: _361  and  _362
REMARK  152  A    between atoms: _361  and  _364
REMARK  153  A    between atoms: _364  and  _365
REMARK  154  A    between atoms: _368  and  _370
REMARK  155  A    between atoms: _370  and  _371
REMARK  156  A    between atoms: _373  and  _375
REMARK  157  A    between atoms: _375  and  _376
REMARK  158  A    between atoms: _378  and  _380
REMARK  159  A    between atoms: _380  and  _381
REMARK  160  A    between atoms: _380  and  _383
REMARK  161  A    between atoms: _383  and  _384
REMARK  162  A    between atoms: _387  and  _389
REMARK  163  A    between atoms: _389  and  _390
REMARK  164  A    between atoms: _392  and  _394
REMARK  165  A    between atoms: _394  and  _395
REMARK  166  A    between atoms: _397  and  _399
REMARK  167  A    between atoms: _399  and  _400
REMARK  168  A    between atoms: _399  and  _402
REMARK  169  A    between atoms: _402  and  _403
REMARK  170  A    between atoms: _409  and  _411
REMARK  171  A    between atoms: _411  and  _412
REMARK  172  A    between atoms: _411  and  _414
REMARK  173  A    between atoms: _414  and  _415
REMARK  174  A    between atoms: _418  and  _420
REMARK  175  A    between atoms: _420  and  _421
REMARK  176  A    between atoms: _420  and  _423
REMARK  177  A    between atoms: _426  and  _428
REMARK  178  A    between atoms: _428  and  _429
REMARK  179  A    between atoms: _428  and  _431
REMARK  180  A    between atoms: _431  and  _432
REMARK  181  A    between atoms: _436  and  _437
REMARK  182  A    between atoms: _442  and  _444
REMARK  183  A    between atoms: _444  and  _445
REMARK  184  A    between atoms: _444  and  _447
REMARK  185  A    between atoms: _447  and  _448
REMARK  186  A    between atoms: _452  and  _453
REMARK  187  A    between atoms: _458  and  _460
REMARK  188  A    between atoms: _460  and  _461
REMARK  189  A    between atoms: _460  and  _463
REMARK  190  A    between atoms: _466  and  _468
REMARK  191  A    between atoms: _468  and  _469
REMARK  192  A    between atoms: _468  and  _471
REMARK  193  A    between atoms: _471  and  _472
REMARK  194  A    between atoms: _477  and  _479
REMARK  195  A    between atoms: _479  and  _480
REMARK  196  A    between atoms: _479  and  _482
REMARK  197  A    between atoms: _482  and  _483
REMARK  198  A    between atoms: _486  and  _488
REMARK  199  A    between atoms: _488  and  _489
REMARK  200  A    between atoms: _488  and  _491
REMARK  201  A    between atoms: _491  and  _492
REMARK  202  A    between atoms: _495  and  _497
REMARK  203  A    between atoms: _497  and  _498
REMARK  204  A    between atoms: _500  and  _502
REMARK  205  A    between atoms: _502  and  _503
REMARK  206  A    between atoms: _502  and  _505
REMARK  207  A    between atoms: _505  and  _506
REMARK  208  A    between atoms: _506  and  _507
REMARK  209  A    between atoms: _507  and  _508
REMARK  210  A    between atoms: _517  and  _519
REMARK  211  A    between atoms: _519  and  _520
REMARK  212  A    between atoms: _519  and  _522
REMARK  213  A    between atoms: _522  and  _523
REMARK                            x       y       z     vdW  Elec       q    Type
REMARK                         _______ _______ _______ _____ _____    ______ ____
ROOT
ATOM      1  O   HOH     1      12.175  21.146  10.535  0.00  0.00    +0.000 OA
ENDROOT
TORSDOF 0
REMARK  Name = ../refined-set-2016/3gi5/3gi5_pocket.pdb
REMARK  213 active torsions:
REMARK  status: ('A' for Active; 'I' for Inactive)
REMARK    1  A    between atoms: _1  and  _3
REMARK    2  A    between atoms: _3  and  _4
REMARK    3  A    between atoms: _3  and  _6
REMARK    4  A    between atoms: _6  and  _7
REMARK    5  A    between atoms: _7  and  _8
REMARK    6  A    between atoms: _8  and  _9
REMARK    7  A    between atoms: _18  and  _20
REMARK    8  A    between atoms: _20  and  _21
REMARK    9  A    between atoms: _20  and  _23
REMARK   10  A    between atoms: _23  and  _24
REMARK   11  A    between atoms: _27  and  _29
REMARK   12  A    between atoms: _29  and  _30
REMARK   13  A    between atoms: _29  and  _32
REMARK   14  A    between atoms: _32  and  _33
REMARK   15  A    between atoms: _36  and  _38
REMARK   16  A    between atoms: _38  and  _39
REMARK   17  A    between atoms: _38  and  _41
REMARK   18  A    between atoms: _41  and  _42
REMARK   19  A    between atoms: _45  and  _47
REMARK   20  A    between atoms: _47  and  _48
REMARK   21  A    between atoms: _47  and  _50
REMARK   22  A    between atoms: _50  and  _51
REMARK   23  A    between atoms: _54  and  _56
REMARK   24  A    between atoms: _56  and  _57
REMARK   25  A    between atoms: _59  and  _61
REMARK   26  A    between atoms: _61  and  _62
REMARK   27  A    between atoms: _65  and  _67
REMARK   28  A    between atoms: _67  and  _68
REMARK   29  A    between atoms: _67  and  _70
REMARK   30  A    between atoms: _70  and  _71
REMARK   31  A    between atoms: _74  and  _76
REMARK   32  A    between atoms: _76  and  _77
REMARK   33  A    between atoms: _76  and  _79
REMARK   34  A    between atoms: _79  and  _80
REMARK   35  A    between atoms: _83  and  _85
REMARK   36  A    between atoms: _85  and  _86
REMARK   37  A    between atoms: _85  and  _88
REMARK   38  A    between atoms: _88  and  _89
REMARK   39  A    between atoms: _92  and  _94
REMARK   40  A    between atoms: _94  and  _95
REMARK   41  A    between atoms: _94  and  _97
REMARK   42  A    between atoms: _100  and  _102
REMARK   43  A    between atoms: _102  and  _103
REMARK   44  A    between atoms: _102  and  _105
REMARK   45  A    between atoms: _105  and  _106
REMARK   46  A    between atoms: _106  and  _107
REMARK   47  A    between atoms: _107  and  _108
REMARK   48  A    between atoms: _108  and  _109
REMARK   49  A    between atoms: _113  and  _115
REMARK   50  A    between atoms: _115  and  _116
REMARK   51  A    between atoms: _115  and  _118
REMARK   52  A    between atoms: _118  and  _119
REMARK   53  A    between atoms: _122  and  _124
REMARK   54  A    between atoms: _124  and  _125
REMARK   55  A    between atoms: _127  and  _129
REMARK   56  A    between atoms: _129  and  _130
REMARK   57  A    between atoms: _132  and  _134
REMARK   58  A    between atoms: _134  and  _135
REMARK   59  A    between atoms: _134  and  _137
REMARK   60  A    between atoms: _137  and  _138
REMARK   61  A    between atoms: _141  and  _143
REMARK   62  A    between atoms: _143  and  _144
REMARK   63  A    between atoms: _146  and  _148
REMARK   64  A    between atoms: _148  and  _149
REMARK   65  A    between atoms: _151  and  _153
REMARK   66  A    between atoms: _153  and  _154
REMARK   67  A    between atoms: _153  and  _156
REMARK   68  A    between atoms: _156  and  _157
REMARK   69  A    between atoms: _163  and  _165
REMARK   70  A    between atoms: _165  and  _166
REMARK   71  A    between atoms: _165  and  _168
REMARK   72  A    between atoms: _168  and  _169
REMARK   73  A    between atoms: _173  and  _174
REMARK   74  A    between atoms: _179  and  _181
REMARK   75  A    between atoms: _181  and  _182
REMARK   76  A    between atoms: _181  and  _184
REMARK   77  A    between atoms: _187  and  _189
REMARK   78  A    between atoms: _189  and  _190
REMARK   79  A    between atoms: _189  and  _192
REMARK   80  A    between atoms: _192  and  _193
REMARK   81  A    between atoms: _198  and  _200
REMARK   82  A    between atoms: _200  and  _201
REMARK   83  A    between atoms: _200  and  _203
REMARK   84  A    between atoms: _203  and  _204
REMARK   85  A    between atoms: _207  and  _209
REMARK   86  A    between atoms: _209  and  _210
REMARK   87  A    between atoms: _209  and  _212
REMARK   88  A    between atoms: _212  and  _213
REMARK   89  A    between atoms: _216  and  _218
REMARK   90  A    between atoms: _218  and  _219
REMARK   91  A    between atoms: _221  and  _223
REMARK   92  A    between atoms: _223  and  _224
REMARK   93  A    between atoms: _223  and  _226
REMARK   94  A    between atoms: _226  and  _227
REMARK   95  A    between atoms: _227  and  _228
REMARK   96  A    between atoms: _228  and  _229
REMARK   97  A    between atoms: _238  and  _240
REMARK   98  A    between atoms: _240  and  _241
REMARK   99  A    between atoms: _240  and  _243
REMARK  100  A    between atoms: _243  and  _244
REMARK  101  A    between atoms: _244  and  _245
REMARK  102  A    between atoms: _245  and  _246
REMARK  103  A    between atoms: _255  and  _257
REMARK  104  A    between atoms: _257  and  _258
REMARK  105  A    between atoms: _257  and  _260
REMARK  106  A    between atoms: _260  and  _261
REMARK  107  A    between atoms: _264  and  _266
REMARK  108  A    between atoms: _266  and  _267
REMARK  109  A    between atoms: _266  and  _269
REMARK  110  A    between atoms: _269  and  _270
REMARK  111  A    between atoms: _273  and  _275
REMARK  112  A    between atoms: _275  and  _276
REMARK  113  A    between atoms: _275  and  _278
REMARK  114  A    between atoms: _278  and  _279
REMARK  115  A    between atoms: _282  and  _284
REMARK  116  A    between atoms: _284  and  _285
REMARK  117  A    between atoms: _284  and  _287
REMARK  118  A    between atoms: _287  and  _288
REMARK  119  A    between atoms: _291  and  _293
REMARK  120  A    between atoms: _293  and  _294
REMARK  121  A    between atoms: _296  and  _298
REMARK  122  A    between atoms: _298  and  _299
REMARK  123  A    between atoms: _302  and  _304
REMARK  124  A    between atoms: _304  and  _305
REMARK  125  A    between atoms: _304  and  _307
REMARK  126  A    between atoms: _307  and  _308
REMARK  127  A    between atoms: _311  and  _313
REMARK  128  A    between atoms: _313  and  _314
REMARK  129  A    between atoms: _313  and  _316
REMARK  130  A    between atoms: _316  and  _317
REMARK  131  A    between atoms: _320  and  _322
REMARK  132  A    between atoms: _322  and  _323
REMARK  133  A    between atoms: _322  and  _325
REMARK  134  A    between atoms: _325  and  _326
REMARK  135  A    between atoms: _329  and  _331
REMARK  136  A    between atoms: _331  and  _332
REMARK  137  A    between atoms: _331  and  _334
REMARK  138  A    between atoms: _337  and  _339
REMARK  139  A    between atoms: _339  and  _340
REMARK  140  A    between atoms: _339  and  _342
REMARK  141  A    between atoms: _342  and  _343
REMARK  142  A    between atoms: _343  and  _344
REMARK  143  A    between atoms: _344  and  _345
REMARK  144  A    between atoms: _345  and  _346
REMARK  145  A    between atoms: _350  and  _352
REMARK  146  A    between atoms: _352  and  _353
REMARK  147  A    between atoms: _352  and  _355
REMARK  148  A    between atoms: _355  and  _356
REMARK  149  A    between atoms: _356  and  _357
REMARK  150  A    between atoms: _359  and  _361
REMARK  151  A    between atoms: _361  and  _362
REMARK  152  A    between atoms: _361  and  _364
REMARK  153  A    between atoms: _364  and  _365
REMARK  154  A    between atoms: _368  and  _370
REMARK  155  A    between atoms: _370  and  _371
REMARK  156  A    between atoms: _373  and  _375
REMARK  157  A    between atoms: _375  and  _376
REMARK  158  A    between atoms: _378  and  _380
REMARK  159  A    between atoms: _380  and  _381
REMARK  160  A    between atoms: _380  and  _383
REMARK  161  A    between atoms: _383  and  _384
REMARK  162  A    between atoms: _387  and  _389
REMARK  163  A    between atoms: _389  and  _390
REMARK  164  A    between atoms: _392  and  _394
REMARK  165  A    between atoms: _394  and  _395
REMARK  166  A    between atoms: _397  and  _399
REMARK  167  A    between atoms: _399  and  _400
REMARK  168  A    between atoms: _399  and  _402
REMARK  169  A    between atoms: _402  and  _403
REMARK  170  A    between atoms: _409  and  _411
REMARK  171  A    between atoms: _411  and  _412
REMARK  172  A    between atoms: _411  and  _414
REMARK  173  A    between atoms: _414  and  _415
REMARK  174  A    between atoms: _418  and  _420
REMARK  175  A    between atoms: _420  and  _421
REMARK  176  A    between atoms: _420  and  _423
REMARK  177  A    between atoms: _426  and  _428
REMARK  178  A    between atoms: _428  and  _429
REMARK  179  A    between atoms: _428  and  _431
REMARK  180  A    between atoms: _431  and  _432
REMARK  181  A    between atoms: _436  and  _437
REMARK  182  A    between atoms: _442  and  _444
REMARK  183  A    between atoms: _444  and  _445
REMARK  184  A    between atoms: _444  and  _447
REMARK  185  A    between atoms: _447  and  _448
REMARK  186  A    between atoms: _452  and  _453
REMARK  187  A    between atoms: _458  and  _460
REMARK  188  A    between atoms: _460  and  _461
REMARK  189  A    between atoms: _460  and  _463
REMARK  190  A    between atoms: _466  and  _468
REMARK  191  A    between atoms: _468  and  _469
REMARK  192  A    between atoms: _468  and  _471
REMARK  193  A    between atoms: _471  and  _472
REMARK  194  A    between atoms: _477  and  _479
REMARK  195  A    between atoms: _479  and  _480
REMARK  196  A    between atoms: _479  and  _482
REMARK  197  A    between atoms: _482  and  _483
REMARK  198  A    between atoms: _486  and  _488
REMARK  199  A    between atoms: _488  and  _489
REMARK  200  A    between atoms: _488  and  _491
REMARK  201  A    between atoms: _491  and  _492
REMARK  202  A    between atoms: _495  and  _497
REMARK  203  A    between atoms: _497  and  _498
REMARK  204  A    between atoms: _500  and  _502
REMARK  205  A    between atoms: _502  and  _503
REMARK  206  A    between atoms: _502  and  _505
REMARK  207  A    between atoms: _505  and  _506
REMARK  208  A    between atoms: _506  and  _507
REMARK  209  A    between atoms: _507  and  _508
REMARK  210  A    between atoms: _517  and  _519
REMARK  211  A    between atoms: _519  and  _520
REMARK  212  A    between atoms: _519  and  _522
REMARK  213  A    between atoms: _522  and  _523
REMARK                            x       y       z     vdW  Elec       q    Type
REMARK                         _______ _______ _______ _____ _____    ______ ____
ROOT
ATOM      1  O   HOH     1      21.065  36.940  16.183  0.00  0.00    +0.000 OA
ENDROOT
TORSDOF 0
REMARK  Name = ../refined-set-2016/3gi5/3gi5_pocket.pdb
REMARK  213 active torsions:
REMARK  status: ('A' for Active; 'I' for Inactive)
REMARK    1  A    between atoms: _1  and  _3
REMARK    2  A    between atoms: _3  and  _4
REMARK    3  A    between atoms: _3  and  _6
REMARK    4  A    between atoms: _6  and  _7
REMARK    5  A    between atoms: _7  and  _8
REMARK    6  A    between atoms: _8  and  _9
REMARK    7  A    between atoms: _18  and  _20
REMARK    8  A    between atoms: _20  and  _21
REMARK    9  A    between atoms: _20  and  _23
REMARK   10  A    between atoms: _23  and  _24
REMARK   11  A    between atoms: _27  and  _29
REMARK   12  A    between atoms: _29  and  _30
REMARK   13  A    between atoms: _29  and  _32
REMARK   14  A    between atoms: _32  and  _33
REMARK   15  A    between atoms: _36  and  _38
REMARK   16  A    between atoms: _38  and  _39
REMARK   17  A    between atoms: _38  and  _41
REMARK   18  A    between atoms: _41  and  _42
REMARK   19  A    between atoms: _45  and  _47
REMARK   20  A    between atoms: _47  and  _48
REMARK   21  A    between atoms: _47  and  _50
REMARK   22  A    between atoms: _50  and  _51
REMARK   23  A    between atoms: _54  and  _56
REMARK   24  A    between atoms: _56  and  _57
REMARK   25  A    between atoms: _59  and  _61
REMARK   26  A    between atoms: _61  and  _62
REMARK   27  A    between atoms: _65  and  _67
REMARK   28  A    between atoms: _67  and  _68
REMARK   29  A    between atoms: _67  and  _70
REMARK   30  A    between atoms: _70  and  _71
REMARK   31  A    between atoms: _74  and  _76
REMARK   32  A    between atoms: _76  and  _77
REMARK   33  A    between atoms: _76  and  _79
REMARK   34  A    between atoms: _79  and  _80
REMARK   35  A    between atoms: _83  and  _85
REMARK   36  A    between atoms: _85  and  _86
REMARK   37  A    between atoms: _85  and  _88
REMARK   38  A    between atoms: _88  and  _89
REMARK   39  A    between atoms: _92  and  _94
REMARK   40  A    between atoms: _94  and  _95
REMARK   41  A    between atoms: _94  and  _97
REMARK   42  A    between atoms: _100  and  _102
REMARK   43  A    between atoms: _102  and  _103
REMARK   44  A    between atoms: _102  and  _105
REMARK   45  A    between atoms: _105  and  _106
REMARK   46  A    between atoms: _106  and  _107
REMARK   47  A    between atoms: _107  and  _108
REMARK   48  A    between atoms: _108  and  _109
REMARK   49  A    between atoms: _113  and  _115
REMARK   50  A    between atoms: _115  and  _116
REMARK   51  A    between atoms: _115  and  _118
REMARK   52  A    between atoms: _118  and  _119
REMARK   53  A    between atoms: _122  and  _124
REMARK   54  A    between atoms: _124  and  _125
REMARK   55  A    between atoms: _127  and  _129
REMARK   56  A    between atoms: _129  and  _130
REMARK   57  A    between atoms: _132  and  _134
REMARK   58  A    between atoms: _134  and  _135
REMARK   59  A    between atoms: _134  and  _137
REMARK   60  A    between atoms: _137  and  _138
REMARK   61  A    between atoms: _141  and  _143
REMARK   62  A    between atoms: _143  and  _144
REMARK   63  A    between atoms: _146  and  _148
REMARK   64  A    between atoms: _148  and  _149
REMARK   65  A    between atoms: _151  and  _153
REMARK   66  A    between atoms: _153  and  _154
REMARK   67  A    between atoms: _153  and  _156
REMARK   68  A    between atoms: _156  and  _157
REMARK   69  A    between atoms: _163  and  _165
REMARK   70  A    between atoms: _165  and  _166
REMARK   71  A    between atoms: _165  and  _168
REMARK   72  A    between atoms: _168  and  _169
REMARK   73  A    between atoms: _173  and  _174
REMARK   74  A    between atoms: _179  and  _181
REMARK   75  A    between atoms: _181  and  _182
REMARK   76  A    between atoms: _181  and  _184
REMARK   77  A    between atoms: _187  and  _189
REMARK   78  A    between atoms: _189  and  _190
REMARK   79  A    between atoms: _189  and  _192
REMARK   80  A    between atoms: _192  and  _193
REMARK   81  A    between atoms: _198  and  _200
REMARK   82  A    between atoms: _200  and  _201
REMARK   83  A    between atoms: _200  and  _203
REMARK   84  A    between atoms: _203  and  _204
REMARK   85  A    between atoms: _207  and  _209
REMARK   86  A    between atoms: _209  and  _210
REMARK   87  A    between atoms: _209  and  _212
REMARK   88  A    between atoms: _212  and  _213
REMARK   89  A    between atoms: _216  and  _218
REMARK   90  A    between atoms: _218  and  _219
REMARK   91  A    between atoms: _221  and  _223
REMARK   92  A    between atoms: _223  and  _224
REMARK   93  A    between atoms: _223  and  _226
REMARK   94  A    between atoms: _226  and  _227
REMARK   95  A    between atoms: _227  and  _228
REMARK   96  A    between atoms: _228  and  _229
REMARK   97  A    between atoms: _238  and  _240
REMARK   98  A    between atoms: _240  and  _241
REMARK   99  A    between atoms: _240  and  _243
REMARK  100  A    between atoms: _243  and  _244
REMARK  101  A    between atoms: _244  and  _245
REMARK  102  A    between atoms: _245  and  _246
REMARK  103  A    between atoms: _255  and  _257
REMARK  104  A    between atoms: _257  and  _258
REMARK  105  A    between atoms: _257  and  _260
REMARK  106  A    between atoms: _260  and  _261
REMARK  107  A    between atoms: _264  and  _266
REMARK  108  A    between atoms: _266  and  _267
REMARK  109  A    between atoms: _266  and  _269
REMARK  110  A    between atoms: _269  and  _270
REMARK  111  A    between atoms: _273  and  _275
REMARK  112  A    between atoms: _275  and  _276
REMARK  113  A    between atoms: _275  and  _278
REMARK  114  A    between atoms: _278  and  _279
REMARK  115  A    between atoms: _282  and  _284
REMARK  116  A    between atoms: _284  and  _285
REMARK  117  A    between atoms: _284  and  _287
REMARK  118  A    between atoms: _287  and  _288
REMARK  119  A    between atoms: _291  and  _293
REMARK  120  A    between atoms: _293  and  _294
REMARK  121  A    between atoms: _296  and  _298
REMARK  122  A    between atoms: _298  and  _299
REMARK  123  A    between atoms: _302  and  _304
REMARK  124  A    between atoms: _304  and  _305
REMARK  125  A    between atoms: _304  and  _307
REMARK  126  A    between atoms: _307  and  _308
REMARK  127  A    between atoms: _311  and  _313
REMARK  128  A    between atoms: _313  and  _314
REMARK  129  A    between atoms: _313  and  _316
REMARK  130  A    between atoms: _316  and  _317
REMARK  131  A    between atoms: _320  and  _322
REMARK  132  A    between atoms: _322  and  _323
REMARK  133  A    between atoms: _322  and  _325
REMARK  134  A    between atoms: _325  and  _326
REMARK  135  A    between atoms: _329  and  _331
REMARK  136  A    between atoms: _331  and  _332
REMARK  137  A    between atoms: _331  and  _334
REMARK  138  A    between atoms: _337  and  _339
REMARK  139  A    between atoms: _339  and  _340
REMARK  140  A    between atoms: _339  and  _342
REMARK  141  A    between atoms: _342  and  _343
REMARK  142  A    between atoms: _343  and  _344
REMARK  143  A    between atoms: _344  and  _345
REMARK  144  A    between atoms: _345  and  _346
REMARK  145  A    between atoms: _350  and  _352
REMARK  146  A    between atoms: _352  and  _353
REMARK  147  A    between atoms: _352  and  _355
REMARK  148  A    between atoms: _355  and  _356
REMARK  149  A    between atoms: _356  and  _357
REMARK  150  A    between atoms: _359  and  _361
REMARK  151  A    between atoms: _361  and  _362
REMARK  152  A    between atoms: _361  and  _364
REMARK  153  A    between atoms: _364  and  _365
REMARK  154  A    between atoms: _368  and  _370
REMARK  155  A    between atoms: _370  and  _371
REMARK  156  A    between atoms: _373  and  _375
REMARK  157  A    between atoms: _375  and  _376
REMARK  158  A    between atoms: _378  and  _380
REMARK  159  A    between atoms: _380  and  _381
REMARK  160  A    between atoms: _380  and  _383
REMARK  161  A    between atoms: _383  and  _384
REMARK  162  A    between atoms: _387  and  _389
REMARK  163  A    between atoms: _389  and  _390
REMARK  164  A    between atoms: _392  and  _394
REMARK  165  A    between atoms: _394  and  _395
REMARK  166  A    between atoms: _397  and  _399
REMARK  167  A    between atoms: _399  and  _400
REMARK  168  A    between atoms: _399  and  _402
REMARK  169  A    between atoms: _402  and  _403
REMARK  170  A    between atoms: _409  and  _411
REMARK  171  A    between atoms: _411  and  _412
REMARK  172  A    between atoms: _411  and  _414
REMARK  173  A    between atoms: _414  and  _415
REMARK  174  A    between atoms: _418  and  _420
REMARK  175  A    between atoms: _420  and  _421
REMARK  176  A    between atoms: _420  and  _423
REMARK  177  A    between atoms: _426  and  _428
REMARK  178  A    between atoms: _428  and  _429
REMARK  179  A    between atoms: _428  and  _431
REMARK  180  A    between atoms: _431  and  _432
REMARK  181  A    between atoms: _436  and  _437
REMARK  182  A    between atoms: _442  and  _444
REMARK  183  A    between atoms: _444  and  _445
REMARK  184  A    between atoms: _444  and  _447
REMARK  185  A    between atoms: _447  and  _448
REMARK  186  A    between atoms: _452  and  _453
REMARK  187  A    between atoms: _458  and  _460
REMARK  188  A    between atoms: _460  and  _461
REMARK  189  A    between atoms: _460  and  _463
REMARK  190  A    between atoms: _466  and  _468
REMARK  191  A    between atoms: _468  and  _469
REMARK  192  A    between atoms: _468  and  _471
REMARK  193  A    between atoms: _471  and  _472
REMARK  194  A    between atoms: _477  and  _479
REMARK  195  A    between atoms: _479  and  _480
REMARK  196  A    between atoms: _479  and  _482
REMARK  197  A    between atoms: _482  and  _483
REMARK  198  A    between atoms: _486  and  _488
REMARK  199  A    between atoms: _488  and  _489
REMARK  200  A    between atoms: _488  and  _491
REMARK  201  A    between atoms: _491  and  _492
REMARK  202  A    between atoms: _495  and  _497
REMARK  203  A    between atoms: _497  and  _498
REMARK  204  A    between atoms: _500  and  _502
REMARK  205  A    between atoms: _502  and  _503
REMARK  206  A    between atoms: _502  and  _505
REMARK  207  A    between atoms: _505  and  _506
REMARK  208  A    between atoms: _506  and  _507
REMARK  209  A    between atoms: _507  and  _508
REMARK  210  A    between atoms: _517  and  _519
REMARK  211  A    between atoms: _519  and  _520
REMARK  212  A    between atoms: _519  and  _522
REMARK  213  A    between atoms: _522  and  _523
REMARK                            x       y       z     vdW  Elec       q    Type
REMARK                         _______ _______ _______ _____ _____    ______ ____
ROOT
ATOM      1  O   HOH     1      20.194  40.687  15.674  0.00  0.00    +0.000 OA
ENDROOT
TORSDOF 0
REMARK  Name = ../refined-set-2016/3gi5/3gi5_pocket.pdb
REMARK  213 active torsions:
REMARK  status: ('A' for Active; 'I' for Inactive)
REMARK    1  A    between atoms: _1  and  _3
REMARK    2  A    between atoms: _3  and  _4
REMARK    3  A    between atoms: _3  and  _6
REMARK    4  A    between atoms: _6  and  _7
REMARK    5  A    between atoms: _7  and  _8
REMARK    6  A    between atoms: _8  and  _9
REMARK    7  A    between atoms: _18  and  _20
REMARK    8  A    between atoms: _20  and  _21
REMARK    9  A    between atoms: _20  and  _23
REMARK   10  A    between atoms: _23  and  _24
REMARK   11  A    between atoms: _27  and  _29
REMARK   12  A    between atoms: _29  and  _30
REMARK   13  A    between atoms: _29  and  _32
REMARK   14  A    between atoms: _32  and  _33
REMARK   15  A    between atoms: _36  and  _38
REMARK   16  A    between atoms: _38  and  _39
REMARK   17  A    between atoms: _38  and  _41
REMARK   18  A    between atoms: _41  and  _42
REMARK   19  A    between atoms: _45  and  _47
REMARK   20  A    between atoms: _47  and  _48
REMARK   21  A    between atoms: _47  and  _50
REMARK   22  A    between atoms: _50  and  _51
REMARK   23  A    between atoms: _54  and  _56
REMARK   24  A    between atoms: _56  and  _57
REMARK   25  A    between atoms: _59  and  _61
REMARK   26  A    between atoms: _61  and  _62
REMARK   27  A    between atoms: _65  and  _67
REMARK   28  A    between atoms: _67  and  _68
REMARK   29  A    between atoms: _67  and  _70
REMARK   30  A    between atoms: _70  and  _71
REMARK   31  A    between atoms: _74  and  _76
REMARK   32  A    between atoms: _76  and  _77
REMARK   33  A    between atoms: _76  and  _79
REMARK   34  A    between atoms: _79  and  _80
REMARK   35  A    between atoms: _83  and  _85
REMARK   36  A    between atoms: _85  and  _86
REMARK   37  A    between atoms: _85  and  _88
REMARK   38  A    between atoms: _88  and  _89
REMARK   39  A    between atoms: _92  and  _94
REMARK   40  A    between atoms: _94  and  _95
REMARK   41  A    between atoms: _94  and  _97
REMARK   42  A    between atoms: _100  and  _102
REMARK   43  A    between atoms: _102  and  _103
REMARK   44  A    between atoms: _102  and  _105
REMARK   45  A    between atoms: _105  and  _106
REMARK   46  A    between atoms: _106  and  _107
REMARK   47  A    between atoms: _107  and  _108
REMARK   48  A    between atoms: _108  and  _109
REMARK   49  A    between atoms: _113  and  _115
REMARK   50  A    between atoms: _115  and  _116
REMARK   51  A    between atoms: _115  and  _118
REMARK   52  A    between atoms: _118  and  _119
REMARK   53  A    between atoms: _122  and  _124
REMARK   54  A    between atoms: _124  and  _125
REMARK   55  A    between atoms: _127  and  _129
REMARK   56  A    between atoms: _129  and  _130
REMARK   57  A    between atoms: _132  and  _134
REMARK   58  A    between atoms: _134  and  _135
REMARK   59  A    between atoms: _134  and  _137
REMARK   60  A    between atoms: _137  and  _138
REMARK   61  A    between atoms: _141  and  _143
REMARK   62  A    between atoms: _143  and  _144
REMARK   63  A    between atoms: _146  and  _148
REMARK   64  A    between atoms: _148  and  _149
REMARK   65  A    between atoms: _151  and  _153
REMARK   66  A    between atoms: _153  and  _154
REMARK   67  A    between atoms: _153  and  _156
REMARK   68  A    between atoms: _156  and  _157
REMARK   69  A    between atoms: _163  and  _165
REMARK   70  A    between atoms: _165  and  _166
REMARK   71  A    between atoms: _165  and  _168
REMARK   72  A    between atoms: _168  and  _169
REMARK   73  A    between atoms: _173  and  _174
REMARK   74  A    between atoms: _179  and  _181
REMARK   75  A    between atoms: _181  and  _182
REMARK   76  A    between atoms: _181  and  _184
REMARK   77  A    between atoms: _187  and  _189
REMARK   78  A    between atoms: _189  and  _190
REMARK   79  A    between atoms: _189  and  _192
REMARK   80  A    between atoms: _192  and  _193
REMARK   81  A    between atoms: _198  and  _200
REMARK   82  A    between atoms: _200  and  _201
REMARK   83  A    between atoms: _200  and  _203
REMARK   84  A    between atoms: _203  and  _204
REMARK   85  A    between atoms: _207  and  _209
REMARK   86  A    between atoms: _209  and  _210
REMARK   87  A    between atoms: _209  and  _212
REMARK   88  A    between atoms: _212  and  _213
REMARK   89  A    between atoms: _216  and  _218
REMARK   90  A    between atoms: _218  and  _219
REMARK   91  A    between atoms: _221  and  _223
REMARK   92  A    between atoms: _223  and  _224
REMARK   93  A    between atoms: _223  and  _226
REMARK   94  A    between atoms: _226  and  _227
REMARK   95  A    between atoms: _227  and  _228
REMARK   96  A    between atoms: _228  and  _229
REMARK   97  A    between atoms: _238  and  _240
REMARK   98  A    between atoms: _240  and  _241
REMARK   99  A    between atoms: _240  and  _243
REMARK  100  A    between atoms: _243  and  _244
REMARK  101  A    between atoms: _244  and  _245
REMARK  102  A    between atoms: _245  and  _246
REMARK  103  A    between atoms: _255  and  _257
REMARK  104  A    between atoms: _257  and  _258
REMARK  105  A    between atoms: _257  and  _260
REMARK  106  A    between atoms: _260  and  _261
REMARK  107  A    between atoms: _264  and  _266
REMARK  108  A    between atoms: _266  and  _267
REMARK  109  A    between atoms: _266  and  _269
REMARK  110  A    between atoms: _269  and  _270
REMARK  111  A    between atoms: _273  and  _275
REMARK  112  A    between atoms: _275  and  _276
REMARK  113  A    between atoms: _275  and  _278
REMARK  114  A    between atoms: _278  and  _279
REMARK  115  A    between atoms: _282  and  _284
REMARK  116  A    between atoms: _284  and  _285
REMARK  117  A    between atoms: _284  and  _287
REMARK  118  A    between atoms: _287  and  _288
REMARK  119  A    between atoms: _291  and  _293
REMARK  120  A    between atoms: _293  and  _294
REMARK  121  A    between atoms: _296  and  _298
REMARK  122  A    between atoms: _298  and  _299
REMARK  123  A    between atoms: _302  and  _304
REMARK  124  A    between atoms: _304  and  _305
REMARK  125  A    between atoms: _304  and  _307
REMARK  126  A    between atoms: _307  and  _308
REMARK  127  A    between atoms: _311  and  _313
REMARK  128  A    between atoms: _313  and  _314
REMARK  129  A    between atoms: _313  and  _316
REMARK  130  A    between atoms: _316  and  _317
REMARK  131  A    between atoms: _320  and  _322
REMARK  132  A    between atoms: _322  and  _323
REMARK  133  A    between atoms: _322  and  _325
REMARK  134  A    between atoms: _325  and  _326
REMARK  135  A    between atoms: _329  and  _331
REMARK  136  A    between atoms: _331  and  _332
REMARK  137  A    between atoms: _331  and  _334
REMARK  138  A    between atoms: _337  and  _339
REMARK  139  A    between atoms: _339  and  _340
REMARK  140  A    between atoms: _339  and  _342
REMARK  141  A    between atoms: _342  and  _343
REMARK  142  A    between atoms: _343  and  _344
REMARK  143  A    between atoms: _344  and  _345
REMARK  144  A    between atoms: _345  and  _346
REMARK  145  A    between atoms: _350  and  _352
REMARK  146  A    between atoms: _352  and  _353
REMARK  147  A    between atoms: _352  and  _355
REMARK  148  A    between atoms: _355  and  _356
REMARK  149  A    between atoms: _356  and  _357
REMARK  150  A    between atoms: _359  and  _361
REMARK  151  A    between atoms: _361  and  _362
REMARK  152  A    between atoms: _361  and  _364
REMARK  153  A    between atoms: _364  and  _365
REMARK  154  A    between atoms: _368  and  _370
REMARK  155  A    between atoms: _370  and  _371
REMARK  156  A    between atoms: _373  and  _375
REMARK  157  A    between atoms: _375  and  _376
REMARK  158  A    between atoms: _378  and  _380
REMARK  159  A    between atoms: _380  and  _381
REMARK  160  A    between atoms: _380  and  _383
REMARK  161  A    between atoms: _383  and  _384
REMARK  162  A    between atoms: _387  and  _389
REMARK  163  A    between atoms: _389  and  _390
REMARK  164  A    between atoms: _392  and  _394
REMARK  165  A    between atoms: _394  and  _395
REMARK  166  A    between atoms: _397  and  _399
REMARK  167  A    between atoms: _399  and  _400
REMARK  168  A    between atoms: _399  and  _402
REMARK  169  A    between atoms: _402  and  _403
REMARK  170  A    between atoms: _409  and  _411
REMARK  171  A    between atoms: _411  and  _412
REMARK  172  A    between atoms: _411  and  _414
REMARK  173  A    between atoms: _414  and  _415
REMARK  174  A    between atoms: _418  and  _420
REMARK  175  A    between atoms: _420  and  _421
REMARK  176  A    between atoms: _420  and  _423
REMARK  177  A    between atoms: _426  and  _428
REMARK  178  A    between atoms: _428  and  _429
REMARK  179  A    between atoms: _428  and  _431
REMARK  180  A    between atoms: _431  and  _432
REMARK  181  A    between atoms: _436  and  _437
REMARK  182  A    between atoms: _442  and  _444
REMARK  183  A    between atoms: _444  and  _445
REMARK  184  A    between atoms: _444  and  _447
REMARK  185  A    between atoms: _447  and  _448
REMARK  186  A    between atoms: _452  and  _453
REMARK  187  A    between atoms: _458  and  _460
REMARK  188  A    between atoms: _460  and  _461
REMARK  189  A    between atoms: _460  and  _463
REMARK  190  A    between atoms: _466  and  _468
REMARK  191  A    between atoms: _468  and  _469
REMARK  192  A    between atoms: _468  and  _471
REMARK  193  A    between atoms: _471  and  _472
REMARK  194  A    between atoms: _477  and  _479
REMARK  195  A    between atoms: _479  and  _480
REMARK  196  A    between atoms: _479  and  _482
REMARK  197  A    between atoms: _482  and  _483
REMARK  198  A    between atoms: _486  and  _488
REMARK  199  A    between atoms: _488  and  _489
REMARK  200  A    between atoms: _488  and  _491
REMARK  201  A    between atoms: _491  and  _492
REMARK  202  A    between atoms: _495  and  _497
REMARK  203  A    between atoms: _497  and  _498
REMARK  204  A    between atoms: _500  and  _502
REMARK  205  A    between atoms: _502  and  _503
REMARK  206  A    between atoms: _502  and  _505
REMARK  207  A    between atoms: _505  and  _506
REMARK  208  A    between atoms: _506  and  _507
REMARK  209  A    between atoms: _507  and  _508
REMARK  210  A    between atoms: _517  and  _519
REMARK  211  A    between atoms: _519  and  _520
REMARK  212  A    between atoms: _519  and  _522
REMARK  213  A    between atoms: _522  and  _523
REMARK                            x       y       z     vdW  Elec       q    Type
REMARK                         _______ _______ _______ _____ _____    ______ ____
ROOT
ATOM      1  O   HOH     1      22.057  39.415  16.973  0.00  0.00    +0.000 OA
ENDROOT
TORSDOF 0
REMARK  Name = ../refined-set-2016/3gi5/3gi5_pocket.pdb
REMARK  213 active torsions:
REMARK  status: ('A' for Active; 'I' for Inactive)
REMARK    1  A    between atoms: _1  and  _3
REMARK    2  A    between atoms: _3  and  _4
REMARK    3  A    between atoms: _3  and  _6
REMARK    4  A    between atoms: _6  and  _7
REMARK    5  A    between atoms: _7  and  _8
REMARK    6  A    between atoms: _8  and  _9
REMARK    7  A    between atoms: _18  and  _20
REMARK    8  A    between atoms: _20  and  _21
REMARK    9  A    between atoms: _20  and  _23
REMARK   10  A    between atoms: _23  and  _24
REMARK   11  A    between atoms: _27  and  _29
REMARK   12  A    between atoms: _29  and  _30
REMARK   13  A    between atoms: _29  and  _32
REMARK   14  A    between atoms: _32  and  _33
REMARK   15  A    between atoms: _36  and  _38
REMARK   16  A    between atoms: _38  and  _39
REMARK   17  A    between atoms: _38  and  _41
REMARK   18  A    between atoms: _41  and  _42
REMARK   19  A    between atoms: _45  and  _47
REMARK   20  A    between atoms: _47  and  _48
REMARK   21  A    between atoms: _47  and  _50
REMARK   22  A    between atoms: _50  and  _51
REMARK   23  A    between atoms: _54  and  _56
REMARK   24  A    between atoms: _56  and  _57
REMARK   25  A    between atoms: _59  and  _61
REMARK   26  A    between atoms: _61  and  _62
REMARK   27  A    between atoms: _65  and  _67
REMARK   28  A    between atoms: _67  and  _68
REMARK   29  A    between atoms: _67  and  _70
REMARK   30  A    between atoms: _70  and  _71
REMARK   31  A    between atoms: _74  and  _76
REMARK   32  A    between atoms: _76  and  _77
REMARK   33  A    between atoms: _76  and  _79
REMARK   34  A    between atoms: _79  and  _80
REMARK   35  A    between atoms: _83  and  _85
REMARK   36  A    between atoms: _85  and  _86
REMARK   37  A    between atoms: _85  and  _88
REMARK   38  A    between atoms: _88  and  _89
REMARK   39  A    between atoms: _92  and  _94
REMARK   40  A    between atoms: _94  and  _95
REMARK   41  A    between atoms: _94  and  _97
REMARK   42  A    between atoms: _100  and  _102
REMARK   43  A    between atoms: _102  and  _103
REMARK   44  A    between atoms: _102  and  _105
REMARK   45  A    between atoms: _105  and  _106
REMARK   46  A    between atoms: _106  and  _107
REMARK   47  A    between atoms: _107  and  _108
REMARK   48  A    between atoms: _108  and  _109
REMARK   49  A    between atoms: _113  and  _115
REMARK   50  A    between atoms: _115  and  _116
REMARK   51  A    between atoms: _115  and  _118
REMARK   52  A    between atoms: _118  and  _119
REMARK   53  A    between atoms: _122  and  _124
REMARK   54  A    between atoms: _124  and  _125
REMARK   55  A    between atoms: _127  and  _129
REMARK   56  A    between atoms: _129  and  _130
REMARK   57  A    between atoms: _132  and  _134
REMARK   58  A    between atoms: _134  and  _135
REMARK   59  A    between atoms: _134  and  _137
REMARK   60  A    between atoms: _137  and  _138
REMARK   61  A    between atoms: _141  and  _143
REMARK   62  A    between atoms: _143  and  _144
REMARK   63  A    between atoms: _146  and  _148
REMARK   64  A    between atoms: _148  and  _149
REMARK   65  A    between atoms: _151  and  _153
REMARK   66  A    between atoms: _153  and  _154
REMARK   67  A    between atoms: _153  and  _156
REMARK   68  A    between atoms: _156  and  _157
REMARK   69  A    between atoms: _163  and  _165
REMARK   70  A    between atoms: _165  and  _166
REMARK   71  A    between atoms: _165  and  _168
REMARK   72  A    between atoms: _168  and  _169
REMARK   73  A    between atoms: _173  and  _174
REMARK   74  A    between atoms: _179  and  _181
REMARK   75  A    between atoms: _181  and  _182
REMARK   76  A    between atoms: _181  and  _184
REMARK   77  A    between atoms: _187  and  _189
REMARK   78  A    between atoms: _189  and  _190
REMARK   79  A    between atoms: _189  and  _192
REMARK   80  A    between atoms: _192  and  _193
REMARK   81  A    between atoms: _198  and  _200
REMARK   82  A    between atoms: _200  and  _201
REMARK   83  A    between atoms: _200  and  _203
REMARK   84  A    between atoms: _203  and  _204
REMARK   85  A    between atoms: _207  and  _209
REMARK   86  A    between atoms: _209  and  _210
REMARK   87  A    between atoms: _209  and  _212
REMARK   88  A    between atoms: _212  and  _213
REMARK   89  A    between atoms: _216  and  _218
REMARK   90  A    between atoms: _218  and  _219
REMARK   91  A    between atoms: _221  and  _223
REMARK   92  A    between atoms: _223  and  _224
REMARK   93  A    between atoms: _223  and  _226
REMARK   94  A    between atoms: _226  and  _227
REMARK   95  A    between atoms: _227  and  _228
REMARK   96  A    between atoms: _228  and  _229
REMARK   97  A    between atoms: _238  and  _240
REMARK   98  A    between atoms: _240  and  _241
REMARK   99  A    between atoms: _240  and  _243
REMARK  100  A    between atoms: _243  and  _244
REMARK  101  A    between atoms: _244  and  _245
REMARK  102  A    between atoms: _245  and  _246
REMARK  103  A    between atoms: _255  and  _257
REMARK  104  A    between atoms: _257  and  _258
REMARK  105  A    between atoms: _257  and  _260
REMARK  106  A    between atoms: _260  and  _261
REMARK  107  A    between atoms: _264  and  _266
REMARK  108  A    between atoms: _266  and  _267
REMARK  109  A    between atoms: _266  and  _269
REMARK  110  A    between atoms: _269  and  _270
REMARK  111  A    between atoms: _273  and  _275
REMARK  112  A    between atoms: _275  and  _276
REMARK  113  A    between atoms: _275  and  _278
REMARK  114  A    between atoms: _278  and  _279
REMARK  115  A    between atoms: _282  and  _284
REMARK  116  A    between atoms: _284  and  _285
REMARK  117  A    between atoms: _284  and  _287
REMARK  118  A    between atoms: _287  and  _288
REMARK  119  A    between atoms: _291  and  _293
REMARK  120  A    between atoms: _293  and  _294
REMARK  121  A    between atoms: _296  and  _298
REMARK  122  A    between atoms: _298  and  _299
REMARK  123  A    between atoms: _302  and  _304
REMARK  124  A    between atoms: _304  and  _305
REMARK  125  A    between atoms: _304  and  _307
REMARK  126  A    between atoms: _307  and  _308
REMARK  127  A    between atoms: _311  and  _313
REMARK  128  A    between atoms: _313  and  _314
REMARK  129  A    between atoms: _313  and  _316
REMARK  130  A    between atoms: _316  and  _317
REMARK  131  A    between atoms: _320  and  _322
REMARK  132  A    between atoms: _322  and  _323
REMARK  133  A    between atoms: _322  and  _325
REMARK  134  A    between atoms: _325  and  _326
REMARK  135  A    between atoms: _329  and  _331
REMARK  136  A    between atoms: _331  and  _332
REMARK  137  A    between atoms: _331  and  _334
REMARK  138  A    between atoms: _337  and  _339
REMARK  139  A    between atoms: _339  and  _340
REMARK  140  A    between atoms: _339  and  _342
REMARK  141  A    between atoms: _342  and  _343
REMARK  142  A    between atoms: _343  and  _344
REMARK  143  A    between atoms: _344  and  _345
REMARK  144  A    between atoms: _345  and  _346
REMARK  145  A    between atoms: _350  and  _352
REMARK  146  A    between atoms: _352  and  _353
REMARK  147  A    between atoms: _352  and  _355
REMARK  148  A    between atoms: _355  and  _356
REMARK  149  A    between atoms: _356  and  _357
REMARK  150  A    between atoms: _359  and  _361
REMARK  151  A    between atoms: _361  and  _362
REMARK  152  A    between atoms: _361  and  _364
REMARK  153  A    between atoms: _364  and  _365
REMARK  154  A    between atoms: _368  and  _370
REMARK  155  A    between atoms: _370  and  _371
REMARK  156  A    between atoms: _373  and  _375
REMARK  157  A    between atoms: _375  and  _376
REMARK  158  A    between atoms: _378  and  _380
REMARK  159  A    between atoms: _380  and  _381
REMARK  160  A    between atoms: _380  and  _383
REMARK  161  A    between atoms: _383  and  _384
REMARK  162  A    between atoms: _387  and  _389
REMARK  163  A    between atoms: _389  and  _390
REMARK  164  A    between atoms: _392  and  _394
REMARK  165  A    between atoms: _394  and  _395
REMARK  166  A    between atoms: _397  and  _399
REMARK  167  A    between atoms: _399  and  _400
REMARK  168  A    between atoms: _399  and  _402
REMARK  169  A    between atoms: _402  and  _403
REMARK  170  A    between atoms: _409  and  _411
REMARK  171  A    between atoms: _411  and  _412
REMARK  172  A    between atoms: _411  and  _414
REMARK  173  A    between atoms: _414  and  _415
REMARK  174  A    between atoms: _418  and  _420
REMARK  175  A    between atoms: _420  and  _421
REMARK  176  A    between atoms: _420  and  _423
REMARK  177  A    between atoms: _426  and  _428
REMARK  178  A    between atoms: _428  and  _429
REMARK  179  A    between atoms: _428  and  _431
REMARK  180  A    between atoms: _431  and  _432
REMARK  181  A    between atoms: _436  and  _437
REMARK  182  A    between atoms: _442  and  _444
REMARK  183  A    between atoms: _444  and  _445
REMARK  184  A    between atoms: _444  and  _447
REMARK  185  A    between atoms: _447  and  _448
REMARK  186  A    between atoms: _452  and  _453
REMARK  187  A    between atoms: _458  and  _460
REMARK  188  A    between atoms: _460  and  _461
REMARK  189  A    between atoms: _460  and  _463
REMARK  190  A    between atoms: _466  and  _468
REMARK  191  A    between atoms: _468  and  _469
REMARK  192  A    between atoms: _468  and  _471
REMARK  193  A    between atoms: _471  and  _472
REMARK  194  A    between atoms: _477  and  _479
REMARK  195  A    between atoms: _479  and  _480
REMARK  196  A    between atoms: _479  and  _482
REMARK  197  A    between atoms: _482  and  _483
REMARK  198  A    between atoms: _486  and  _488
REMARK  199  A    between atoms: _488  and  _489
REMARK  200  A    between atoms: _488  and  _491
REMARK  201  A    between atoms: _491  and  _492
REMARK  202  A    between atoms: _495  and  _497
REMARK  203  A    between atoms: _497  and  _498
REMARK  204  A    between atoms: _500  and  _502
REMARK  205  A    between atoms: _502  and  _503
REMARK  206  A    between atoms: _502  and  _505
REMARK  207  A    between atoms: _505  and  _506
REMARK  208  A    between atoms: _506  and  _507
REMARK  209  A    between atoms: _507  and  _508
REMARK  210  A    between atoms: _517  and  _519
REMARK  211  A    between atoms: _519  and  _520
REMARK  212  A    between atoms: _519  and  _522
REMARK  213  A    between atoms: _522  and  _523
REMARK                            x       y       z     vdW  Elec       q    Type
REMARK                         _______ _______ _______ _____ _____    ______ ____
ROOT
ATOM      1  O   HOH     1      10.463  24.650   5.557  0.00  0.00    +0.000 OA
ENDROOT
TORSDOF 0
REMARK  Name = ../refined-set-2016/3gi5/3gi5_pocket.pdb
REMARK  213 active torsions:
REMARK  status: ('A' for Active; 'I' for Inactive)
REMARK    1  A    between atoms: _1  and  _3
REMARK    2  A    between atoms: _3  and  _4
REMARK    3  A    between atoms: _3  and  _6
REMARK    4  A    between atoms: _6  and  _7
REMARK    5  A    between atoms: _7  and  _8
REMARK    6  A    between atoms: _8  and  _9
REMARK    7  A    between atoms: _18  and  _20
REMARK    8  A    between atoms: _20  and  _21
REMARK    9  A    between atoms: _20  and  _23
REMARK   10  A    between atoms: _23  and  _24
REMARK   11  A    between atoms: _27  and  _29
REMARK   12  A    between atoms: _29  and  _30
REMARK   13  A    between atoms: _29  and  _32
REMARK   14  A    between atoms: _32  and  _33
REMARK   15  A    between atoms: _36  and  _38
REMARK   16  A    between atoms: _38  and  _39
REMARK   17  A    between atoms: _38  and  _41
REMARK   18  A    between atoms: _41  and  _42
REMARK   19  A    between atoms: _45  and  _47
REMARK   20  A    between atoms: _47  and  _48
REMARK   21  A    between atoms: _47  and  _50
REMARK   22  A    between atoms: _50  and  _51
REMARK   23  A    between atoms: _54  and  _56
REMARK   24  A    between atoms: _56  and  _57
REMARK   25  A    between atoms: _59  and  _61
REMARK   26  A    between atoms: _61  and  _62
REMARK   27  A    between atoms: _65  and  _67
REMARK   28  A    between atoms: _67  and  _68
REMARK   29  A    between atoms: _67  and  _70
REMARK   30  A    between atoms: _70  and  _71
REMARK   31  A    between atoms: _74  and  _76
REMARK   32  A    between atoms: _76  and  _77
REMARK   33  A    between atoms: _76  and  _79
REMARK   34  A    between atoms: _79  and  _80
REMARK   35  A    between atoms: _83  and  _85
REMARK   36  A    between atoms: _85  and  _86
REMARK   37  A    between atoms: _85  and  _88
REMARK   38  A    between atoms: _88  and  _89
REMARK   39  A    between atoms: _92  and  _94
REMARK   40  A    between atoms: _94  and  _95
REMARK   41  A    between atoms: _94  and  _97
REMARK   42  A    between atoms: _100  and  _102
REMARK   43  A    between atoms: _102  and  _103
REMARK   44  A    between atoms: _102  and  _105
REMARK   45  A    between atoms: _105  and  _106
REMARK   46  A    between atoms: _106  and  _107
REMARK   47  A    between atoms: _107  and  _108
REMARK   48  A    between atoms: _108  and  _109
REMARK   49  A    between atoms: _113  and  _115
REMARK   50  A    between atoms: _115  and  _116
REMARK   51  A    between atoms: _115  and  _118
REMARK   52  A    between atoms: _118  and  _119
REMARK   53  A    between atoms: _122  and  _124
REMARK   54  A    between atoms: _124  and  _125
REMARK   55  A    between atoms: _127  and  _129
REMARK   56  A    between atoms: _129  and  _130
REMARK   57  A    between atoms: _132  and  _134
REMARK   58  A    between atoms: _134  and  _135
REMARK   59  A    between atoms: _134  and  _137
REMARK   60  A    between atoms: _137  and  _138
REMARK   61  A    between atoms: _141  and  _143
REMARK   62  A    between atoms: _143  and  _144
REMARK   63  A    between atoms: _146  and  _148
REMARK   64  A    between atoms: _148  and  _149
REMARK   65  A    between atoms: _151  and  _153
REMARK   66  A    between atoms: _153  and  _154
REMARK   67  A    between atoms: _153  and  _156
REMARK   68  A    between atoms: _156  and  _157
REMARK   69  A    between atoms: _163  and  _165
REMARK   70  A    between atoms: _165  and  _166
REMARK   71  A    between atoms: _165  and  _168
REMARK   72  A    between atoms: _168  and  _169
REMARK   73  A    between atoms: _173  and  _174
REMARK   74  A    between atoms: _179  and  _181
REMARK   75  A    between atoms: _181  and  _182
REMARK   76  A    between atoms: _181  and  _184
REMARK   77  A    between atoms: _187  and  _189
REMARK   78  A    between atoms: _189  and  _190
REMARK   79  A    between atoms: _189  and  _192
REMARK   80  A    between atoms: _192  and  _193
REMARK   81  A    between atoms: _198  and  _200
REMARK   82  A    between atoms: _200  and  _201
REMARK   83  A    between atoms: _200  and  _203
REMARK   84  A    between atoms: _203  and  _204
REMARK   85  A    between atoms: _207  and  _209
REMARK   86  A    between atoms: _209  and  _210
REMARK   87  A    between atoms: _209  and  _212
REMARK   88  A    between atoms: _212  and  _213
REMARK   89  A    between atoms: _216  and  _218
REMARK   90  A    between atoms: _218  and  _219
REMARK   91  A    between atoms: _221  and  _223
REMARK   92  A    between atoms: _223  and  _224
REMARK   93  A    between atoms: _223  and  _226
REMARK   94  A    between atoms: _226  and  _227
REMARK   95  A    between atoms: _227  and  _228
REMARK   96  A    between atoms: _228  and  _229
REMARK   97  A    between atoms: _238  and  _240
REMARK   98  A    between atoms: _240  and  _241
REMARK   99  A    between atoms: _240  and  _243
REMARK  100  A    between atoms: _243  and  _244
REMARK  101  A    between atoms: _244  and  _245
REMARK  102  A    between atoms: _245  and  _246
REMARK  103  A    between atoms: _255  and  _257
REMARK  104  A    between atoms: _257  and  _258
REMARK  105  A    between atoms: _257  and  _260
REMARK  106  A    between atoms: _260  and  _261
REMARK  107  A    between atoms: _264  and  _266
REMARK  108  A    between atoms: _266  and  _267
REMARK  109  A    between atoms: _266  and  _269
REMARK  110  A    between atoms: _269  and  _270
REMARK  111  A    between atoms: _273  and  _275
REMARK  112  A    between atoms: _275  and  _276
REMARK  113  A    between atoms: _275  and  _278
REMARK  114  A    between atoms: _278  and  _279
REMARK  115  A    between atoms: _282  and  _284
REMARK  116  A    between atoms: _284  and  _285
REMARK  117  A    between atoms: _284  and  _287
REMARK  118  A    between atoms: _287  and  _288
REMARK  119  A    between atoms: _291  and  _293
REMARK  120  A    between atoms: _293  and  _294
REMARK  121  A    between atoms: _296  and  _298
REMARK  122  A    between atoms: _298  and  _299
REMARK  123  A    between atoms: _302  and  _304
REMARK  124  A    between atoms: _304  and  _305
REMARK  125  A    between atoms: _304  and  _307
REMARK  126  A    between atoms: _307  and  _308
REMARK  127  A    between atoms: _311  and  _313
REMARK  128  A    between atoms: _313  and  _314
REMARK  129  A    between atoms: _313  and  _316
REMARK  130  A    between atoms: _316  and  _317
REMARK  131  A    between atoms: _320  and  _322
REMARK  132  A    between atoms: _322  and  _323
REMARK  133  A    between atoms: _322  and  _325
REMARK  134  A    between atoms: _325  and  _326
REMARK  135  A    between atoms: _329  and  _331
REMARK  136  A    between atoms: _331  and  _332
REMARK  137  A    between atoms: _331  and  _334
REMARK  138  A    between atoms: _337  and  _339
REMARK  139  A    between atoms: _339  and  _340
REMARK  140  A    between atoms: _339  and  _342
REMARK  141  A    between atoms: _342  and  _343
REMARK  142  A    between atoms: _343  and  _344
REMARK  143  A    between atoms: _344  and  _345
REMARK  144  A    between atoms: _345  and  _346
REMARK  145  A    between atoms: _350  and  _352
REMARK  146  A    between atoms: _352  and  _353
REMARK  147  A    between atoms: _352  and  _355
REMARK  148  A    between atoms: _355  and  _356
REMARK  149  A    between atoms: _356  and  _357
REMARK  150  A    between atoms: _359  and  _361
REMARK  151  A    between atoms: _361  and  _362
REMARK  152  A    between atoms: _361  and  _364
REMARK  153  A    between atoms: _364  and  _365
REMARK  154  A    between atoms: _368  and  _370
REMARK  155  A    between atoms: _370  and  _371
REMARK  156  A    between atoms: _373  and  _375
REMARK  157  A    between atoms: _375  and  _376
REMARK  158  A    between atoms: _378  and  _380
REMARK  159  A    between atoms: _380  and  _381
REMARK  160  A    between atoms: _380  and  _383
REMARK  161  A    between atoms: _383  and  _384
REMARK  162  A    between atoms: _387  and  _389
REMARK  163  A    between atoms: _389  and  _390
REMARK  164  A    between atoms: _392  and  _394
REMARK  165  A    between atoms: _394  and  _395
REMARK  166  A    between atoms: _397  and  _399
REMARK  167  A    between atoms: _399  and  _400
REMARK  168  A    between atoms: _399  and  _402
REMARK  169  A    between atoms: _402  and  _403
REMARK  170  A    between atoms: _409  and  _411
REMARK  171  A    between atoms: _411  and  _412
REMARK  172  A    between atoms: _411  and  _414
REMARK  173  A    between atoms: _414  and  _415
REMARK  174  A    between atoms: _418  and  _420
REMARK  175  A    between atoms: _420  and  _421
REMARK  176  A    between atoms: _420  and  _423
REMARK  177  A    between atoms: _426  and  _428
REMARK  178  A    between atoms: _428  and  _429
REMARK  179  A    between atoms: _428  and  _431
REMARK  180  A    between atoms: _431  and  _432
REMARK  181  A    between atoms: _436  and  _437
REMARK  182  A    between atoms: _442  and  _444
REMARK  183  A    between atoms: _444  and  _445
REMARK  184  A    between atoms: _444  and  _447
REMARK  185  A    between atoms: _447  and  _448
REMARK  186  A    between atoms: _452  and  _453
REMARK  187  A    between atoms: _458  and  _460
REMARK  188  A    between atoms: _460  and  _461
REMARK  189  A    between atoms: _460  and  _463
REMARK  190  A    between atoms: _466  and  _468
REMARK  191  A    between atoms: _468  and  _469
REMARK  192  A    between atoms: _468  and  _471
REMARK  193  A    between atoms: _471  and  _472
REMARK  194  A    between atoms: _477  and  _479
REMARK  195  A    between atoms: _479  and  _480
REMARK  196  A    between atoms: _479  and  _482
REMARK  197  A    between atoms: _482  and  _483
REMARK  198  A    between atoms: _486  and  _488
REMARK  199  A    between atoms: _488  and  _489
REMARK  200  A    between atoms: _488  and  _491
REMARK  201  A    between atoms: _491  and  _492
REMARK  202  A    between atoms: _495  and  _497
REMARK  203  A    between atoms: _497  and  _498
REMARK  204  A    between atoms: _500  and  _502
REMARK  205  A    between atoms: _502  and  _503
REMARK  206  A    between atoms: _502  and  _505
REMARK  207  A    between atoms: _505  and  _506
REMARK  208  A    between atoms: _506  and  _507
REMARK  209  A    between atoms: _507  and  _508
REMARK  210  A    between atoms: _517  and  _519
REMARK  211  A    between atoms: _519  and  _520
REMARK  212  A    between atoms: _519  and  _522
REMARK  213  A    between atoms: _522  and  _523
REMARK                            x       y       z     vdW  Elec       q    Type
REMARK                         _______ _______ _______ _____ _____    ______ ____
ROOT
ATOM      1  O   HOH     1      17.058  22.906  11.231  0.00  0.00    +0.000 OA
ENDROOT
TORSDOF 0
