REMARK  Name = ../refined-set-2016/1w4q/1w4q_pocket.pdb
REMARK  137 active torsions:
REMARK  status: ('A' for Active; 'I' for Inactive)
REMARK    1  A    between atoms: _1  and  _3
REMARK    2  A    between atoms: _3  and  _4
REMARK    3  A    between atoms: _7  and  _9
REMARK    4  A    between atoms: _9  and  _10
REMARK    5  A    between atoms: _9  and  _12
REMARK    6  A    between atoms: _12  and  _13
REMARK    7  A    between atoms: _13  and  _14
REMARK    8  A    between atoms: _14  and  _15
REMARK    9  A    between atoms: _15  and  _16
REMARK   10  A    between atoms: _20  and  _22
REMARK   11  A    between atoms: _22  and  _23
REMARK   12  A    between atoms: _22  and  _25
REMARK   13  A    between atoms: _25  and  _26
REMARK   14  A    between atoms: _32  and  _34
REMARK   15  A    between atoms: _34  and  _35
REMARK   16  A    between atoms: _34  and  _37
REMARK   17  A    between atoms: _37  and  _38
REMARK   18  A    between atoms: _38  and  _39
REMARK   19  A    between atoms: _39  and  _40
REMARK   20  A    between atoms: _49  and  _51
REMARK   21  A    between atoms: _51  and  _52
REMARK   22  A    between atoms: _51  and  _54
REMARK   23  A    between atoms: _54  and  _55
REMARK   24  A    between atoms: _55  and  _56
REMARK   25  A    between atoms: _61  and  _63
REMARK   26  A    between atoms: _63  and  _64
REMARK   27  A    between atoms: _63  and  _66
REMARK   28  A    between atoms: _66  and  _67
REMARK   29  A    between atoms: _72  and  _74
REMARK   30  A    between atoms: _74  and  _75
REMARK   31  A    between atoms: _74  and  _77
REMARK   32  A    between atoms: _77  and  _78
REMARK   33  A    between atoms: _78  and  _79
REMARK   34  A    between atoms: _81  and  _83
REMARK   35  A    between atoms: _83  and  _84
REMARK   36  A    between atoms: _83  and  _86
REMARK   37  A    between atoms: _86  and  _87
REMARK   38  A    between atoms: _90  and  _92
REMARK   39  A    between atoms: _92  and  _93
REMARK   40  A    between atoms: _92  and  _95
REMARK   41  A    between atoms: _95  and  _96
REMARK   42  A    between atoms: _96  and  _97
REMARK   43  A    between atoms: _97  and  _98
REMARK   44  A    between atoms: _107  and  _109
REMARK   45  A    between atoms: _109  and  _110
REMARK   46  A    between atoms: _109  and  _112
REMARK   47  A    between atoms: _112  and  _113
REMARK   48  A    between atoms: _113  and  _114
REMARK   49  A    between atoms: _114  and  _115
REMARK   50  A    between atoms: _115  and  _116
REMARK   51  A    between atoms: _121  and  _122
REMARK   52  A    between atoms: _127  and  _129
REMARK   53  A    between atoms: _129  and  _130
REMARK   54  A    between atoms: _129  and  _132
REMARK   55  A    between atoms: _135  and  _137
REMARK   56  A    between atoms: _137  and  _138
REMARK   57  A    between atoms: _137  and  _140
REMARK   58  A    between atoms: _140  and  _141
REMARK   59  A    between atoms: _146  and  _148
REMARK   60  A    between atoms: _148  and  _149
REMARK   61  A    between atoms: _148  and  _151
REMARK   62  A    between atoms: _151  and  _152
REMARK   63  A    between atoms: _155  and  _157
REMARK   64  A    between atoms: _157  and  _158
REMARK   65  A    between atoms: _157  and  _160
REMARK   66  A    between atoms: _160  and  _161
REMARK   67  A    between atoms: _167  and  _169
REMARK   68  A    between atoms: _169  and  _170
REMARK   69  A    between atoms: _169  and  _172
REMARK   70  A    between atoms: _172  and  _173
REMARK   71  A    between atoms: _173  and  _174
REMARK   72  A    between atoms: _174  and  _175
REMARK   73  A    between atoms: _175  and  _176
REMARK   74  A    between atoms: _180  and  _182
REMARK   75  A    between atoms: _182  and  _183
REMARK   76  A    between atoms: _182  and  _185
REMARK   77  A    between atoms: _185  and  _186
REMARK   78  A    between atoms: _191  and  _193
REMARK   79  A    between atoms: _193  and  _194
REMARK   80  A    between atoms: _193  and  _196
REMARK   81  A    between atoms: _196  and  _197
REMARK   82  A    between atoms: _200  and  _202
REMARK   83  A    between atoms: _202  and  _203
REMARK   84  A    between atoms: _202  and  _205
REMARK   85  A    between atoms: _205  and  _206
REMARK   86  A    between atoms: _209  and  _211
REMARK   87  A    between atoms: _211  and  _212
REMARK   88  A    between atoms: _211  and  _214
REMARK   89  A    between atoms: _214  and  _215
REMARK   90  A    between atoms: _218  and  _220
REMARK   91  A    between atoms: _220  and  _221
REMARK   92  A    between atoms: _220  and  _223
REMARK   93  A    between atoms: _225  and  _227
REMARK   94  A    between atoms: _227  and  _228
REMARK   95  A    between atoms: _227  and  _230
REMARK   96  A    between atoms: _230  and  _231
REMARK   97  A    between atoms: _231  and  _232
REMARK   98  A    between atoms: _232  and  _233
REMARK   99  A    between atoms: _233  and  _234
REMARK  100  A    between atoms: _238  and  _240
REMARK  101  A    between atoms: _240  and  _241
REMARK  102  A    between atoms: _240  and  _243
REMARK  103  A    between atoms: _243  and  _244
REMARK  104  A    between atoms: _247  and  _249
REMARK  105  A    between atoms: _249  and  _250
REMARK  106  A    between atoms: _249  and  _252
REMARK  107  A    between atoms: _252  and  _253
REMARK  108  A    between atoms: _256  and  _258
REMARK  109  A    between atoms: _258  and  _259
REMARK  110  A    between atoms: _258  and  _261
REMARK  111  A    between atoms: _264  and  _266
REMARK  112  A    between atoms: _266  and  _267
REMARK  113  A    between atoms: _271  and  _272
REMARK  114  A    between atoms: _277  and  _279
REMARK  115  A    between atoms: _279  and  _280
REMARK  116  A    between atoms: _279  and  _282
REMARK  117  A    between atoms: _285  and  _287
REMARK  118  A    between atoms: _287  and  _288
REMARK  119  A    between atoms: _287  and  _290
REMARK  120  A    between atoms: _290  and  _291
REMARK  121  A    between atoms: _296  and  _298
REMARK  122  A    between atoms: _298  and  _299
REMARK  123  A    between atoms: _298  and  _301
REMARK  124  A    between atoms: _301  and  _302
REMARK  125  A    between atoms: _308  and  _310
REMARK  126  A    between atoms: _310  and  _311
REMARK  127  A    between atoms: _310  and  _313
REMARK  128  A    between atoms: _313  and  _314
REMARK  129  A    between atoms: _317  and  _319
REMARK  130  A    between atoms: _319  and  _320
REMARK  131  A    between atoms: _323  and  _325
REMARK  132  A    between atoms: _325  and  _326
REMARK  133  A    between atoms: _325  and  _328
REMARK  134  A    between atoms: _328  and  _329
REMARK  135  A    between atoms: _331  and  _333
REMARK  136  A    between atoms: _333  and  _334
REMARK  137  A    between atoms: _333  and  _336
REMARK                            x       y       z     vdW  Elec       q    Type
REMARK                         _______ _______ _______ _____ _____    ______ ____
ROOT
ATOM      1  CA  ALA A   1      34.210  11.805  15.128  0.00  0.00    +0.133 C 
ATOM      2  CB  ALA A   1      34.528  11.404  16.564  0.00  0.00    +0.027 C 
ENDROOT
BRANCH   1   3
ATOM      3  N   ALA A   1      34.176  13.255  15.015  0.00  0.00    -0.239 NA
ATOM      4  H   ALA A   1      34.321  13.831  15.868  0.00  0.00    +0.142 HD
ENDBRANCH   1   3
BRANCH   1   5
ATOM      5  C   ALA A   1      32.869  11.218  14.702  0.00  0.00    +0.224 C 
ATOM      6  O   ALA A   1      32.817  10.152  14.086  0.00  0.00    -0.287 OA
ENDBRANCH   1   5
TORSDOF 2
REMARK  Name = ../refined-set-2016/1w4q/1w4q_pocket.pdb
REMARK  137 active torsions:
REMARK  status: ('A' for Active; 'I' for Inactive)
REMARK    1  A    between atoms: _1  and  _3
REMARK    2  A    between atoms: _3  and  _4
REMARK    3  A    between atoms: _7  and  _9
REMARK    4  A    between atoms: _9  and  _10
REMARK    5  A    between atoms: _9  and  _12
REMARK    6  A    between atoms: _12  and  _13
REMARK    7  A    between atoms: _13  and  _14
REMARK    8  A    between atoms: _14  and  _15
REMARK    9  A    between atoms: _15  and  _16
REMARK   10  A    between atoms: _20  and  _22
REMARK   11  A    between atoms: _22  and  _23
REMARK   12  A    between atoms: _22  and  _25
REMARK   13  A    between atoms: _25  and  _26
REMARK   14  A    between atoms: _32  and  _34
REMARK   15  A    between atoms: _34  and  _35
REMARK   16  A    between atoms: _34  and  _37
REMARK   17  A    between atoms: _37  and  _38
REMARK   18  A    between atoms: _38  and  _39
REMARK   19  A    between atoms: _39  and  _40
REMARK   20  A    between atoms: _49  and  _51
REMARK   21  A    between atoms: _51  and  _52
REMARK   22  A    between atoms: _51  and  _54
REMARK   23  A    between atoms: _54  and  _55
REMARK   24  A    between atoms: _55  and  _56
REMARK   25  A    between atoms: _61  and  _63
REMARK   26  A    between atoms: _63  and  _64
REMARK   27  A    between atoms: _63  and  _66
REMARK   28  A    between atoms: _66  and  _67
REMARK   29  A    between atoms: _72  and  _74
REMARK   30  A    between atoms: _74  and  _75
REMARK   31  A    between atoms: _74  and  _77
REMARK   32  A    between atoms: _77  and  _78
REMARK   33  A    between atoms: _78  and  _79
REMARK   34  A    between atoms: _81  and  _83
REMARK   35  A    between atoms: _83  and  _84
REMARK   36  A    between atoms: _83  and  _86
REMARK   37  A    between atoms: _86  and  _87
REMARK   38  A    between atoms: _90  and  _92
REMARK   39  A    between atoms: _92  and  _93
REMARK   40  A    between atoms: _92  and  _95
REMARK   41  A    between atoms: _95  and  _96
REMARK   42  A    between atoms: _96  and  _97
REMARK   43  A    between atoms: _97  and  _98
REMARK   44  A    between atoms: _107  and  _109
REMARK   45  A    between atoms: _109  and  _110
REMARK   46  A    between atoms: _109  and  _112
REMARK   47  A    between atoms: _112  and  _113
REMARK   48  A    between atoms: _113  and  _114
REMARK   49  A    between atoms: _114  and  _115
REMARK   50  A    between atoms: _115  and  _116
REMARK   51  A    between atoms: _121  and  _122
REMARK   52  A    between atoms: _127  and  _129
REMARK   53  A    between atoms: _129  and  _130
REMARK   54  A    between atoms: _129  and  _132
REMARK   55  A    between atoms: _135  and  _137
REMARK   56  A    between atoms: _137  and  _138
REMARK   57  A    between atoms: _137  and  _140
REMARK   58  A    between atoms: _140  and  _141
REMARK   59  A    between atoms: _146  and  _148
REMARK   60  A    between atoms: _148  and  _149
REMARK   61  A    between atoms: _148  and  _151
REMARK   62  A    between atoms: _151  and  _152
REMARK   63  A    between atoms: _155  and  _157
REMARK   64  A    between atoms: _157  and  _158
REMARK   65  A    between atoms: _157  and  _160
REMARK   66  A    between atoms: _160  and  _161
REMARK   67  A    between atoms: _167  and  _169
REMARK   68  A    between atoms: _169  and  _170
REMARK   69  A    between atoms: _169  and  _172
REMARK   70  A    between atoms: _172  and  _173
REMARK   71  A    between atoms: _173  and  _174
REMARK   72  A    between atoms: _174  and  _175
REMARK   73  A    between atoms: _175  and  _176
REMARK   74  A    between atoms: _180  and  _182
REMARK   75  A    between atoms: _182  and  _183
REMARK   76  A    between atoms: _182  and  _185
REMARK   77  A    between atoms: _185  and  _186
REMARK   78  A    between atoms: _191  and  _193
REMARK   79  A    between atoms: _193  and  _194
REMARK   80  A    between atoms: _193  and  _196
REMARK   81  A    between atoms: _196  and  _197
REMARK   82  A    between atoms: _200  and  _202
REMARK   83  A    between atoms: _202  and  _203
REMARK   84  A    between atoms: _202  and  _205
REMARK   85  A    between atoms: _205  and  _206
REMARK   86  A    between atoms: _209  and  _211
REMARK   87  A    between atoms: _211  and  _212
REMARK   88  A    between atoms: _211  and  _214
REMARK   89  A    between atoms: _214  and  _215
REMARK   90  A    between atoms: _218  and  _220
REMARK   91  A    between atoms: _220  and  _221
REMARK   92  A    between atoms: _220  and  _223
REMARK   93  A    between atoms: _225  and  _227
REMARK   94  A    between atoms: _227  and  _228
REMARK   95  A    between atoms: _227  and  _230
REMARK   96  A    between atoms: _230  and  _231
REMARK   97  A    between atoms: _231  and  _232
REMARK   98  A    between atoms: _232  and  _233
REMARK   99  A    between atoms: _233  and  _234
REMARK  100  A    between atoms: _238  and  _240
REMARK  101  A    between atoms: _240  and  _241
REMARK  102  A    between atoms: _240  and  _243
REMARK  103  A    between atoms: _243  and  _244
REMARK  104  A    between atoms: _247  and  _249
REMARK  105  A    between atoms: _249  and  _250
REMARK  106  A    between atoms: _249  and  _252
REMARK  107  A    between atoms: _252  and  _253
REMARK  108  A    between atoms: _256  and  _258
REMARK  109  A    between atoms: _258  and  _259
REMARK  110  A    between atoms: _258  and  _261
REMARK  111  A    between atoms: _264  and  _266
REMARK  112  A    between atoms: _266  and  _267
REMARK  113  A    between atoms: _271  and  _272
REMARK  114  A    between atoms: _277  and  _279
REMARK  115  A    between atoms: _279  and  _280
REMARK  116  A    between atoms: _279  and  _282
REMARK  117  A    between atoms: _285  and  _287
REMARK  118  A    between atoms: _287  and  _288
REMARK  119  A    between atoms: _287  and  _290
REMARK  120  A    between atoms: _290  and  _291
REMARK  121  A    between atoms: _296  and  _298
REMARK  122  A    between atoms: _298  and  _299
REMARK  123  A    between atoms: _298  and  _301
REMARK  124  A    between atoms: _301  and  _302
REMARK  125  A    between atoms: _308  and  _310
REMARK  126  A    between atoms: _310  and  _311
REMARK  127  A    between atoms: _310  and  _313
REMARK  128  A    between atoms: _313  and  _314
REMARK  129  A    between atoms: _317  and  _319
REMARK  130  A    between atoms: _319  and  _320
REMARK  131  A    between atoms: _323  and  _325
REMARK  132  A    between atoms: _325  and  _326
REMARK  133  A    between atoms: _325  and  _328
REMARK  134  A    between atoms: _328  and  _329
REMARK  135  A    between atoms: _331  and  _333
REMARK  136  A    between atoms: _333  and  _334
REMARK  137  A    between atoms: _333  and  _336
REMARK                            x       y       z     vdW  Elec       q    Type
REMARK                         _______ _______ _______ _____ _____    ______ ____
ROOT
ATOM      1  C   LYS A   1      32.951   8.903  10.557  0.00  0.00    +0.238 C 
ATOM      2  N   PHE A   2      32.208   8.652  11.633  0.00  0.00    -0.298 N 
ATOM      3  H   PHE A   2      32.094   9.382  12.365  0.00  0.00    +0.150 HD
ATOM      4  O   LYS A   1      33.128   8.070   9.670  0.00  0.00    -0.274 OA
ENDROOT
BRANCH   1   5
ATOM      5  CA  LYS A   1      33.587  10.290  10.463  0.00  0.00    +0.145 C 
BRANCH   5   6
ATOM      6  N   LYS A   1      32.681  11.290  11.011  0.00  0.00    -0.238 NA
ATOM      7  H   LYS A   1      32.938  11.788  11.887  0.00  0.00    +0.142 HD
ENDBRANCH   5   6
BRANCH   5   8
ATOM      8  CB  LYS A   1      34.925  10.311  11.210  0.00  0.00    +0.026 C 
BRANCH   8   9
ATOM      9  CG  LYS A   1      35.936   9.302  10.686  0.00  0.00    -0.000 C 
BRANCH   9  10
ATOM     10  CD  LYS A   1      37.293   9.490  11.338  0.00  0.00    -0.024 C 
BRANCH  10  11
ATOM     11  CE  LYS A   1      38.285   8.453  10.845  0.00  0.00    -0.086 C 
BRANCH  11  12
ATOM     12  NZ  LYS A   1      39.608   8.580  11.516  0.00  0.00    +0.380 N 
ATOM     13  HZ1 LYS A   1      39.489   8.453  12.541  0.00  0.00    -0.089 HD
ATOM     14  HZ2 LYS A   1      40.003   9.523  11.326  0.00  0.00    -0.089 HD
ATOM     15  HZ3 LYS A   1      40.253   7.852  11.148  0.00  0.00    -0.089 HD
ENDBRANCH  11  12
ENDBRANCH  10  11
ENDBRANCH   9  10
ENDBRANCH   8   9
ENDBRANCH   5   8
ENDBRANCH   1   5
BRANCH   2  16
ATOM     16  CA  PHE A   2      31.552   7.355  11.791  0.00  0.00    +0.141 C 
BRANCH  16  17
ATOM     17  C   PHE A   2      30.540   7.156  10.666  0.00  0.00    +0.227 C 
ATOM     18  O   PHE A   2      30.447   6.073  10.082  0.00  0.00    -0.286 OA
ENDBRANCH  16  17
BRANCH  16  19
ATOM     19  CB  PHE A   2      30.842   7.270  13.150  0.00  0.00    +0.054 C 
BRANCH  19  20
ATOM     20  CG  PHE A   2      30.021   6.025  13.329  0.00  0.00    -0.020 A 
ATOM     21  CD2 PHE A   2      30.570   4.899  13.938  0.00  0.00    -0.004 A 
ATOM     22  CE2 PHE A   2      29.828   3.719  14.061  0.00  0.00    -0.000 A 
ATOM     23  CZ  PHE A   2      28.526   3.665  13.574  0.00  0.00    -0.000 A 
ATOM     24  CE1 PHE A   2      27.965   4.787  12.966  0.00  0.00    -0.000 A 
ATOM     25  CD1 PHE A   2      28.714   5.958  12.848  0.00  0.00    -0.004 A 
ENDBRANCH  19  20
ENDBRANCH  16  19
ENDBRANCH   2  16
TORSDOF 11
REMARK  Name = ../refined-set-2016/1w4q/1w4q_pocket.pdb
REMARK  137 active torsions:
REMARK  status: ('A' for Active; 'I' for Inactive)
REMARK    1  A    between atoms: _1  and  _3
REMARK    2  A    between atoms: _3  and  _4
REMARK    3  A    between atoms: _7  and  _9
REMARK    4  A    between atoms: _9  and  _10
REMARK    5  A    between atoms: _9  and  _12
REMARK    6  A    between atoms: _12  and  _13
REMARK    7  A    between atoms: _13  and  _14
REMARK    8  A    between atoms: _14  and  _15
REMARK    9  A    between atoms: _15  and  _16
REMARK   10  A    between atoms: _20  and  _22
REMARK   11  A    between atoms: _22  and  _23
REMARK   12  A    between atoms: _22  and  _25
REMARK   13  A    between atoms: _25  and  _26
REMARK   14  A    between atoms: _32  and  _34
REMARK   15  A    between atoms: _34  and  _35
REMARK   16  A    between atoms: _34  and  _37
REMARK   17  A    between atoms: _37  and  _38
REMARK   18  A    between atoms: _38  and  _39
REMARK   19  A    between atoms: _39  and  _40
REMARK   20  A    between atoms: _49  and  _51
REMARK   21  A    between atoms: _51  and  _52
REMARK   22  A    between atoms: _51  and  _54
REMARK   23  A    between atoms: _54  and  _55
REMARK   24  A    between atoms: _55  and  _56
REMARK   25  A    between atoms: _61  and  _63
REMARK   26  A    between atoms: _63  and  _64
REMARK   27  A    between atoms: _63  and  _66
REMARK   28  A    between atoms: _66  and  _67
REMARK   29  A    between atoms: _72  and  _74
REMARK   30  A    between atoms: _74  and  _75
REMARK   31  A    between atoms: _74  and  _77
REMARK   32  A    between atoms: _77  and  _78
REMARK   33  A    between atoms: _78  and  _79
REMARK   34  A    between atoms: _81  and  _83
REMARK   35  A    between atoms: _83  and  _84
REMARK   36  A    between atoms: _83  and  _86
REMARK   37  A    between atoms: _86  and  _87
REMARK   38  A    between atoms: _90  and  _92
REMARK   39  A    between atoms: _92  and  _93
REMARK   40  A    between atoms: _92  and  _95
REMARK   41  A    between atoms: _95  and  _96
REMARK   42  A    between atoms: _96  and  _97
REMARK   43  A    between atoms: _97  and  _98
REMARK   44  A    between atoms: _107  and  _109
REMARK   45  A    between atoms: _109  and  _110
REMARK   46  A    between atoms: _109  and  _112
REMARK   47  A    between atoms: _112  and  _113
REMARK   48  A    between atoms: _113  and  _114
REMARK   49  A    between atoms: _114  and  _115
REMARK   50  A    between atoms: _115  and  _116
REMARK   51  A    between atoms: _121  and  _122
REMARK   52  A    between atoms: _127  and  _129
REMARK   53  A    between atoms: _129  and  _130
REMARK   54  A    between atoms: _129  and  _132
REMARK   55  A    between atoms: _135  and  _137
REMARK   56  A    between atoms: _137  and  _138
REMARK   57  A    between atoms: _137  and  _140
REMARK   58  A    between atoms: _140  and  _141
REMARK   59  A    between atoms: _146  and  _148
REMARK   60  A    between atoms: _148  and  _149
REMARK   61  A    between atoms: _148  and  _151
REMARK   62  A    between atoms: _151  and  _152
REMARK   63  A    between atoms: _155  and  _157
REMARK   64  A    between atoms: _157  and  _158
REMARK   65  A    between atoms: _157  and  _160
REMARK   66  A    between atoms: _160  and  _161
REMARK   67  A    between atoms: _167  and  _169
REMARK   68  A    between atoms: _169  and  _170
REMARK   69  A    between atoms: _169  and  _172
REMARK   70  A    between atoms: _172  and  _173
REMARK   71  A    between atoms: _173  and  _174
REMARK   72  A    between atoms: _174  and  _175
REMARK   73  A    between atoms: _175  and  _176
REMARK   74  A    between atoms: _180  and  _182
REMARK   75  A    between atoms: _182  and  _183
REMARK   76  A    between atoms: _182  and  _185
REMARK   77  A    between atoms: _185  and  _186
REMARK   78  A    between atoms: _191  and  _193
REMARK   79  A    between atoms: _193  and  _194
REMARK   80  A    between atoms: _193  and  _196
REMARK   81  A    between atoms: _196  and  _197
REMARK   82  A    between atoms: _200  and  _202
REMARK   83  A    between atoms: _202  and  _203
REMARK   84  A    between atoms: _202  and  _205
REMARK   85  A    between atoms: _205  and  _206
REMARK   86  A    between atoms: _209  and  _211
REMARK   87  A    between atoms: _211  and  _212
REMARK   88  A    between atoms: _211  and  _214
REMARK   89  A    between atoms: _214  and  _215
REMARK   90  A    between atoms: _218  and  _220
REMARK   91  A    between atoms: _220  and  _221
REMARK   92  A    between atoms: _220  and  _223
REMARK   93  A    between atoms: _225  and  _227
REMARK   94  A    between atoms: _227  and  _228
REMARK   95  A    between atoms: _227  and  _230
REMARK   96  A    between atoms: _230  and  _231
REMARK   97  A    between atoms: _231  and  _232
REMARK   98  A    between atoms: _232  and  _233
REMARK   99  A    between atoms: _233  and  _234
REMARK  100  A    between atoms: _238  and  _240
REMARK  101  A    between atoms: _240  and  _241
REMARK  102  A    between atoms: _240  and  _243
REMARK  103  A    between atoms: _243  and  _244
REMARK  104  A    between atoms: _247  and  _249
REMARK  105  A    between atoms: _249  and  _250
REMARK  106  A    between atoms: _249  and  _252
REMARK  107  A    between atoms: _252  and  _253
REMARK  108  A    between atoms: _256  and  _258
REMARK  109  A    between atoms: _258  and  _259
REMARK  110  A    between atoms: _258  and  _261
REMARK  111  A    between atoms: _264  and  _266
REMARK  112  A    between atoms: _266  and  _267
REMARK  113  A    between atoms: _271  and  _272
REMARK  114  A    between atoms: _277  and  _279
REMARK  115  A    between atoms: _279  and  _280
REMARK  116  A    between atoms: _279  and  _282
REMARK  117  A    between atoms: _285  and  _287
REMARK  118  A    between atoms: _287  and  _288
REMARK  119  A    between atoms: _287  and  _290
REMARK  120  A    between atoms: _290  and  _291
REMARK  121  A    between atoms: _296  and  _298
REMARK  122  A    between atoms: _298  and  _299
REMARK  123  A    between atoms: _298  and  _301
REMARK  124  A    between atoms: _301  and  _302
REMARK  125  A    between atoms: _308  and  _310
REMARK  126  A    between atoms: _310  and  _311
REMARK  127  A    between atoms: _310  and  _313
REMARK  128  A    between atoms: _313  and  _314
REMARK  129  A    between atoms: _317  and  _319
REMARK  130  A    between atoms: _319  and  _320
REMARK  131  A    between atoms: _323  and  _325
REMARK  132  A    between atoms: _325  and  _326
REMARK  133  A    between atoms: _325  and  _328
REMARK  134  A    between atoms: _328  and  _329
REMARK  135  A    between atoms: _331  and  _333
REMARK  136  A    between atoms: _333  and  _334
REMARK  137  A    between atoms: _333  and  _336
REMARK                            x       y       z     vdW  Elec       q    Type
REMARK                         _______ _______ _______ _____ _____    ______ ____
ROOT
ATOM      1  CA  GLN A   2      33.030   5.182   7.317  0.00  0.00    +0.149 C 
ENDROOT
BRANCH   1   3
ATOM      2  C   ARG A   1      31.862   7.031   6.269  0.00  0.00    +0.238 C 
ATOM      3  N   GLN A   2      32.416   6.502   7.353  0.00  0.00    -0.297 N 
ATOM      4  H   GLN A   2      32.412   7.039   8.243  0.00  0.00    +0.150 HD
ATOM      5  O   ARG A   1      31.815   6.439   5.189  0.00  0.00    -0.274 OA
BRANCH   2   6
ATOM      6  CA  ARG A   1      31.275   8.425   6.427  0.00  0.00    +0.145 C 
BRANCH   6   7
ATOM      7  N   ARG A   1      30.562   8.571   7.694  0.00  0.00    -0.238 NA
ATOM      8  H   ARG A   1      30.931   9.223   8.415  0.00  0.00    +0.142 HD
ENDBRANCH   6   7
BRANCH   6   9
ATOM      9  CB  ARG A   1      32.396   9.471   6.318  0.00  0.00    +0.030 C 
BRANCH   9  10
ATOM     10  CG  ARG A   1      33.340   9.253   5.130  0.00  0.00    +0.045 C 
BRANCH  10  11
ATOM     11  CD  ARG A   1      34.286  10.434   4.927  0.00  0.00    +0.174 C 
BRANCH  11  12
ATOM     12  NE  ARG A   1      35.210  10.640   6.041  0.00  0.00    -0.265 N 
ATOM     13  HE  ARG A   1      34.968  11.372   6.739  0.00  0.00    +0.259 HD
ATOM     14  CZ  ARG A   1      36.338   9.959   6.226  0.00  0.00    +0.342 C 
ATOM     15  NH2 ARG A   1      37.115  10.233   7.265  0.00  0.00    -0.292 N 
ATOM     16 HH21 ARG A   1      36.843  10.980   7.935  0.00  0.00    +0.255 HD
ATOM     17 HH22 ARG A   1      37.997   9.701   7.410  0.00  0.00    +0.255 HD
ATOM     18  NH1 ARG A   1      36.699   9.012   5.369  0.00  0.00    -0.292 N 
ATOM     19 HH11 ARG A   1      37.582   8.484   5.520  0.00  0.00    +0.255 HD
ATOM     20 HH12 ARG A   1      36.099   8.798   4.547  0.00  0.00    +0.255 HD
ENDBRANCH  11  12
ENDBRANCH  10  11
ENDBRANCH   9  10
ENDBRANCH   6   9
ENDBRANCH   2   6
ENDBRANCH   1   3
BRANCH   1  21
ATOM     21  C   GLN A   2      32.097   3.996   7.498  0.00  0.00    +0.241 C 
ATOM     22  N   HIS A   3      31.039   4.167   8.282  0.00  0.00    -0.298 N 
ATOM     23  H   HIS A   3      30.812   5.104   8.673  0.00  0.00    +0.150 HD
ATOM     24  O   GLN A   2      32.327   2.935   6.922  0.00  0.00    -0.273 OA
BRANCH  22  25
ATOM     25  CA  HIS A   3      30.192   2.996   8.586  0.00  0.00    +0.143 C 
BRANCH  25  26
ATOM     26  C   HIS A   3      28.716   3.032   8.227  0.00  0.00    +0.227 C 
ATOM     27  O   HIS A   3      28.005   2.064   8.456  0.00  0.00    -0.286 OA
ENDBRANCH  25  26
BRANCH  25  28
ATOM     28  CB  HIS A   3      30.314   2.683  10.077  0.00  0.00    +0.075 C 
BRANCH  28  29
ATOM     29  CG  HIS A   3      31.768   2.525  10.504  0.00  0.00    +0.082 A 
ATOM     30  CD2 HIS A   3      32.558   3.252  11.329  0.00  0.00    +0.115 A 
ATOM     31  NE2 HIS A   3      33.795   2.654  11.338  0.00  0.00    -0.221 NA
ATOM     32  CE1 HIS A   3      33.764   1.595  10.550  0.00  0.00    +0.199 A 
ATOM     33  ND1 HIS A   3      32.552   1.494  10.034  0.00  0.00    -0.227 NA
ENDBRANCH  28  29
ENDBRANCH  25  28
ENDBRANCH  22  25
ENDBRANCH   1  21
BRANCH   1  34
ATOM     34  CB  GLN A   2      34.101   5.068   8.402  0.00  0.00    +0.039 C 
BRANCH  34  35
ATOM     35  CG  GLN A   2      35.371   5.832   8.155  0.00  0.00    +0.087 C 
BRANCH  35  36
ATOM     36  CD  GLN A   2      36.396   5.568   9.236  0.00  0.00    +0.219 C 
ATOM     37  NE2 GLN A   2      35.949   5.562  10.491  0.00  0.00    -0.329 N 
ATOM     38 HE21 GLN A   2      36.608   5.387  11.277  0.00  0.00    +0.145 HD
ATOM     39 HE22 GLN A   2      34.942   5.732  10.685  0.00  0.00    +0.145 HD
ATOM     40  OE1 GLN A   2      37.575   5.373   8.950  0.00  0.00    -0.275 OA
ENDBRANCH  35  36
ENDBRANCH  34  35
ENDBRANCH   1  34
TORSDOF 15
REMARK  Name = ../refined-set-2016/1w4q/1w4q_pocket.pdb
REMARK  137 active torsions:
REMARK  status: ('A' for Active; 'I' for Inactive)
REMARK    1  A    between atoms: _1  and  _3
REMARK    2  A    between atoms: _3  and  _4
REMARK    3  A    between atoms: _7  and  _9
REMARK    4  A    between atoms: _9  and  _10
REMARK    5  A    between atoms: _9  and  _12
REMARK    6  A    between atoms: _12  and  _13
REMARK    7  A    between atoms: _13  and  _14
REMARK    8  A    between atoms: _14  and  _15
REMARK    9  A    between atoms: _15  and  _16
REMARK   10  A    between atoms: _20  and  _22
REMARK   11  A    between atoms: _22  and  _23
REMARK   12  A    between atoms: _22  and  _25
REMARK   13  A    between atoms: _25  and  _26
REMARK   14  A    between atoms: _32  and  _34
REMARK   15  A    between atoms: _34  and  _35
REMARK   16  A    between atoms: _34  and  _37
REMARK   17  A    between atoms: _37  and  _38
REMARK   18  A    between atoms: _38  and  _39
REMARK   19  A    between atoms: _39  and  _40
REMARK   20  A    between atoms: _49  and  _51
REMARK   21  A    between atoms: _51  and  _52
REMARK   22  A    between atoms: _51  and  _54
REMARK   23  A    between atoms: _54  and  _55
REMARK   24  A    between atoms: _55  and  _56
REMARK   25  A    between atoms: _61  and  _63
REMARK   26  A    between atoms: _63  and  _64
REMARK   27  A    between atoms: _63  and  _66
REMARK   28  A    between atoms: _66  and  _67
REMARK   29  A    between atoms: _72  and  _74
REMARK   30  A    between atoms: _74  and  _75
REMARK   31  A    between atoms: _74  and  _77
REMARK   32  A    between atoms: _77  and  _78
REMARK   33  A    between atoms: _78  and  _79
REMARK   34  A    between atoms: _81  and  _83
REMARK   35  A    between atoms: _83  and  _84
REMARK   36  A    between atoms: _83  and  _86
REMARK   37  A    between atoms: _86  and  _87
REMARK   38  A    between atoms: _90  and  _92
REMARK   39  A    between atoms: _92  and  _93
REMARK   40  A    between atoms: _92  and  _95
REMARK   41  A    between atoms: _95  and  _96
REMARK   42  A    between atoms: _96  and  _97
REMARK   43  A    between atoms: _97  and  _98
REMARK   44  A    between atoms: _107  and  _109
REMARK   45  A    between atoms: _109  and  _110
REMARK   46  A    between atoms: _109  and  _112
REMARK   47  A    between atoms: _112  and  _113
REMARK   48  A    between atoms: _113  and  _114
REMARK   49  A    between atoms: _114  and  _115
REMARK   50  A    between atoms: _115  and  _116
REMARK   51  A    between atoms: _121  and  _122
REMARK   52  A    between atoms: _127  and  _129
REMARK   53  A    between atoms: _129  and  _130
REMARK   54  A    between atoms: _129  and  _132
REMARK   55  A    between atoms: _135  and  _137
REMARK   56  A    between atoms: _137  and  _138
REMARK   57  A    between atoms: _137  and  _140
REMARK   58  A    between atoms: _140  and  _141
REMARK   59  A    between atoms: _146  and  _148
REMARK   60  A    between atoms: _148  and  _149
REMARK   61  A    between atoms: _148  and  _151
REMARK   62  A    between atoms: _151  and  _152
REMARK   63  A    between atoms: _155  and  _157
REMARK   64  A    between atoms: _157  and  _158
REMARK   65  A    between atoms: _157  and  _160
REMARK   66  A    between atoms: _160  and  _161
REMARK   67  A    between atoms: _167  and  _169
REMARK   68  A    between atoms: _169  and  _170
REMARK   69  A    between atoms: _169  and  _172
REMARK   70  A    between atoms: _172  and  _173
REMARK   71  A    between atoms: _173  and  _174
REMARK   72  A    between atoms: _174  and  _175
REMARK   73  A    between atoms: _175  and  _176
REMARK   74  A    between atoms: _180  and  _182
REMARK   75  A    between atoms: _182  and  _183
REMARK   76  A    between atoms: _182  and  _185
REMARK   77  A    between atoms: _185  and  _186
REMARK   78  A    between atoms: _191  and  _193
REMARK   79  A    between atoms: _193  and  _194
REMARK   80  A    between atoms: _193  and  _196
REMARK   81  A    between atoms: _196  and  _197
REMARK   82  A    between atoms: _200  and  _202
REMARK   83  A    between atoms: _202  and  _203
REMARK   84  A    between atoms: _202  and  _205
REMARK   85  A    between atoms: _205  and  _206
REMARK   86  A    between atoms: _209  and  _211
REMARK   87  A    between atoms: _211  and  _212
REMARK   88  A    between atoms: _211  and  _214
REMARK   89  A    between atoms: _214  and  _215
REMARK   90  A    between atoms: _218  and  _220
REMARK   91  A    between atoms: _220  and  _221
REMARK   92  A    between atoms: _220  and  _223
REMARK   93  A    between atoms: _225  and  _227
REMARK   94  A    between atoms: _227  and  _228
REMARK   95  A    between atoms: _227  and  _230
REMARK   96  A    between atoms: _230  and  _231
REMARK   97  A    between atoms: _231  and  _232
REMARK   98  A    between atoms: _232  and  _233
REMARK   99  A    between atoms: _233  and  _234
REMARK  100  A    between atoms: _238  and  _240
REMARK  101  A    between atoms: _240  and  _241
REMARK  102  A    between atoms: _240  and  _243
REMARK  103  A    between atoms: _243  and  _244
REMARK  104  A    between atoms: _247  and  _249
REMARK  105  A    between atoms: _249  and  _250
REMARK  106  A    between atoms: _249  and  _252
REMARK  107  A    between atoms: _252  and  _253
REMARK  108  A    between atoms: _256  and  _258
REMARK  109  A    between atoms: _258  and  _259
REMARK  110  A    between atoms: _258  and  _261
REMARK  111  A    between atoms: _264  and  _266
REMARK  112  A    between atoms: _266  and  _267
REMARK  113  A    between atoms: _271  and  _272
REMARK  114  A    between atoms: _277  and  _279
REMARK  115  A    between atoms: _279  and  _280
REMARK  116  A    between atoms: _279  and  _282
REMARK  117  A    between atoms: _285  and  _287
REMARK  118  A    between atoms: _287  and  _288
REMARK  119  A    between atoms: _287  and  _290
REMARK  120  A    between atoms: _290  and  _291
REMARK  121  A    between atoms: _296  and  _298
REMARK  122  A    between atoms: _298  and  _299
REMARK  123  A    between atoms: _298  and  _301
REMARK  124  A    between atoms: _301  and  _302
REMARK  125  A    between atoms: _308  and  _310
REMARK  126  A    between atoms: _310  and  _311
REMARK  127  A    between atoms: _310  and  _313
REMARK  128  A    between atoms: _313  and  _314
REMARK  129  A    between atoms: _317  and  _319
REMARK  130  A    between atoms: _319  and  _320
REMARK  131  A    between atoms: _323  and  _325
REMARK  132  A    between atoms: _325  and  _326
REMARK  133  A    between atoms: _325  and  _328
REMARK  134  A    between atoms: _328  and  _329
REMARK  135  A    between atoms: _331  and  _333
REMARK  136  A    between atoms: _333  and  _334
REMARK  137  A    between atoms: _333  and  _336
REMARK                            x       y       z     vdW  Elec       q    Type
REMARK                         _______ _______ _______ _____ _____    ______ ____
ROOT
ATOM      1  CA  MET A   1      36.137   1.882   0.440  0.00  0.00    +0.134 C 
ENDROOT
BRANCH   1   2
ATOM      2  N   MET A   1      34.953   1.524  -0.329  0.00  0.00    -0.239 NA
ATOM      3  H   MET A   1      34.888   0.590  -0.782  0.00  0.00    +0.142 HD
ENDBRANCH   1   2
BRANCH   1   4
ATOM      4  C   MET A   1      36.837   3.065  -0.220  0.00  0.00    +0.224 C 
ATOM      5  O   MET A   1      37.451   3.890   0.451  0.00  0.00    -0.287 OA
ENDBRANCH   1   4
BRANCH   1   6
ATOM      6  CB  MET A   1      37.088   0.689   0.539  0.00  0.00    +0.037 C 
BRANCH   6   7
ATOM      7  CG  MET A   1      36.563  -0.454   1.395  0.00  0.00    +0.059 C 
BRANCH   7   8
ATOM      8  SD  MET A   1      36.272   0.020   3.123  0.00  0.00    -0.139 S 
ATOM      9  CE  MET A   1      37.967   0.254   3.692  0.00  0.00    +0.069 C 
ENDBRANCH   7   8
ENDBRANCH   6   7
ENDBRANCH   1   6
TORSDOF 5
REMARK  Name = ../refined-set-2016/1w4q/1w4q_pocket.pdb
REMARK  137 active torsions:
REMARK  status: ('A' for Active; 'I' for Inactive)
REMARK    1  A    between atoms: _1  and  _3
REMARK    2  A    between atoms: _3  and  _4
REMARK    3  A    between atoms: _7  and  _9
REMARK    4  A    between atoms: _9  and  _10
REMARK    5  A    between atoms: _9  and  _12
REMARK    6  A    between atoms: _12  and  _13
REMARK    7  A    between atoms: _13  and  _14
REMARK    8  A    between atoms: _14  and  _15
REMARK    9  A    between atoms: _15  and  _16
REMARK   10  A    between atoms: _20  and  _22
REMARK   11  A    between atoms: _22  and  _23
REMARK   12  A    between atoms: _22  and  _25
REMARK   13  A    between atoms: _25  and  _26
REMARK   14  A    between atoms: _32  and  _34
REMARK   15  A    between atoms: _34  and  _35
REMARK   16  A    between atoms: _34  and  _37
REMARK   17  A    between atoms: _37  and  _38
REMARK   18  A    between atoms: _38  and  _39
REMARK   19  A    between atoms: _39  and  _40
REMARK   20  A    between atoms: _49  and  _51
REMARK   21  A    between atoms: _51  and  _52
REMARK   22  A    between atoms: _51  and  _54
REMARK   23  A    between atoms: _54  and  _55
REMARK   24  A    between atoms: _55  and  _56
REMARK   25  A    between atoms: _61  and  _63
REMARK   26  A    between atoms: _63  and  _64
REMARK   27  A    between atoms: _63  and  _66
REMARK   28  A    between atoms: _66  and  _67
REMARK   29  A    between atoms: _72  and  _74
REMARK   30  A    between atoms: _74  and  _75
REMARK   31  A    between atoms: _74  and  _77
REMARK   32  A    between atoms: _77  and  _78
REMARK   33  A    between atoms: _78  and  _79
REMARK   34  A    between atoms: _81  and  _83
REMARK   35  A    between atoms: _83  and  _84
REMARK   36  A    between atoms: _83  and  _86
REMARK   37  A    between atoms: _86  and  _87
REMARK   38  A    between atoms: _90  and  _92
REMARK   39  A    between atoms: _92  and  _93
REMARK   40  A    between atoms: _92  and  _95
REMARK   41  A    between atoms: _95  and  _96
REMARK   42  A    between atoms: _96  and  _97
REMARK   43  A    between atoms: _97  and  _98
REMARK   44  A    between atoms: _107  and  _109
REMARK   45  A    between atoms: _109  and  _110
REMARK   46  A    between atoms: _109  and  _112
REMARK   47  A    between atoms: _112  and  _113
REMARK   48  A    between atoms: _113  and  _114
REMARK   49  A    between atoms: _114  and  _115
REMARK   50  A    between atoms: _115  and  _116
REMARK   51  A    between atoms: _121  and  _122
REMARK   52  A    between atoms: _127  and  _129
REMARK   53  A    between atoms: _129  and  _130
REMARK   54  A    between atoms: _129  and  _132
REMARK   55  A    between atoms: _135  and  _137
REMARK   56  A    between atoms: _137  and  _138
REMARK   57  A    between atoms: _137  and  _140
REMARK   58  A    between atoms: _140  and  _141
REMARK   59  A    between atoms: _146  and  _148
REMARK   60  A    between atoms: _148  and  _149
REMARK   61  A    between atoms: _148  and  _151
REMARK   62  A    between atoms: _151  and  _152
REMARK   63  A    between atoms: _155  and  _157
REMARK   64  A    between atoms: _157  and  _158
REMARK   65  A    between atoms: _157  and  _160
REMARK   66  A    between atoms: _160  and  _161
REMARK   67  A    between atoms: _167  and  _169
REMARK   68  A    between atoms: _169  and  _170
REMARK   69  A    between atoms: _169  and  _172
REMARK   70  A    between atoms: _172  and  _173
REMARK   71  A    between atoms: _173  and  _174
REMARK   72  A    between atoms: _174  and  _175
REMARK   73  A    between atoms: _175  and  _176
REMARK   74  A    between atoms: _180  and  _182
REMARK   75  A    between atoms: _182  and  _183
REMARK   76  A    between atoms: _182  and  _185
REMARK   77  A    between atoms: _185  and  _186
REMARK   78  A    between atoms: _191  and  _193
REMARK   79  A    between atoms: _193  and  _194
REMARK   80  A    between atoms: _193  and  _196
REMARK   81  A    between atoms: _196  and  _197
REMARK   82  A    between atoms: _200  and  _202
REMARK   83  A    between atoms: _202  and  _203
REMARK   84  A    between atoms: _202  and  _205
REMARK   85  A    between atoms: _205  and  _206
REMARK   86  A    between atoms: _209  and  _211
REMARK   87  A    between atoms: _211  and  _212
REMARK   88  A    between atoms: _211  and  _214
REMARK   89  A    between atoms: _214  and  _215
REMARK   90  A    between atoms: _218  and  _220
REMARK   91  A    between atoms: _220  and  _221
REMARK   92  A    between atoms: _220  and  _223
REMARK   93  A    between atoms: _225  and  _227
REMARK   94  A    between atoms: _227  and  _228
REMARK   95  A    between atoms: _227  and  _230
REMARK   96  A    between atoms: _230  and  _231
REMARK   97  A    between atoms: _231  and  _232
REMARK   98  A    between atoms: _232  and  _233
REMARK   99  A    between atoms: _233  and  _234
REMARK  100  A    between atoms: _238  and  _240
REMARK  101  A    between atoms: _240  and  _241
REMARK  102  A    between atoms: _240  and  _243
REMARK  103  A    between atoms: _243  and  _244
REMARK  104  A    between atoms: _247  and  _249
REMARK  105  A    between atoms: _249  and  _250
REMARK  106  A    between atoms: _249  and  _252
REMARK  107  A    between atoms: _252  and  _253
REMARK  108  A    between atoms: _256  and  _258
REMARK  109  A    between atoms: _258  and  _259
REMARK  110  A    between atoms: _258  and  _261
REMARK  111  A    between atoms: _264  and  _266
REMARK  112  A    between atoms: _266  and  _267
REMARK  113  A    between atoms: _271  and  _272
REMARK  114  A    between atoms: _277  and  _279
REMARK  115  A    between atoms: _279  and  _280
REMARK  116  A    between atoms: _279  and  _282
REMARK  117  A    between atoms: _285  and  _287
REMARK  118  A    between atoms: _287  and  _288
REMARK  119  A    between atoms: _287  and  _290
REMARK  120  A    between atoms: _290  and  _291
REMARK  121  A    between atoms: _296  and  _298
REMARK  122  A    between atoms: _298  and  _299
REMARK  123  A    between atoms: _298  and  _301
REMARK  124  A    between atoms: _301  and  _302
REMARK  125  A    between atoms: _308  and  _310
REMARK  126  A    between atoms: _310  and  _311
REMARK  127  A    between atoms: _310  and  _313
REMARK  128  A    between atoms: _313  and  _314
REMARK  129  A    between atoms: _317  and  _319
REMARK  130  A    between atoms: _319  and  _320
REMARK  131  A    between atoms: _323  and  _325
REMARK  132  A    between atoms: _325  and  _326
REMARK  133  A    between atoms: _325  and  _328
REMARK  134  A    between atoms: _328  and  _329
REMARK  135  A    between atoms: _331  and  _333
REMARK  136  A    between atoms: _333  and  _334
REMARK  137  A    between atoms: _333  and  _336
REMARK                            x       y       z     vdW  Elec       q    Type
REMARK                         _______ _______ _______ _____ _____    ______ ____
ROOT
ATOM      1  CA  LEU A   1      39.084   5.049   3.180  0.00  0.00    +0.133 C 
ENDROOT
BRANCH   1   2
ATOM      2  N   LEU A   1      38.453   5.896   2.178  0.00  0.00    -0.239 NA
ATOM      3  H   LEU A   1      37.842   5.462   1.457  0.00  0.00    +0.142 HD
ENDBRANCH   1   2
BRANCH   1   4
ATOM      4  C   LEU A   1      40.335   4.377   2.635  0.00  0.00    +0.224 C 
ATOM      5  O   LEU A   1      40.898   3.489   3.272  0.00  0.00    -0.287 OA
ENDBRANCH   1   4
BRANCH   1   6
ATOM      6  CB  LEU A   1      38.090   3.989   3.662  0.00  0.00    +0.025 C 
BRANCH   6   7
ATOM      7  CG  LEU A   1      36.739   4.582   4.075  0.00  0.00    +0.002 C 
ATOM      8  CD2 LEU A   1      36.962   5.648   5.132  0.00  0.00    +0.000 C 
ATOM      9  CD1 LEU A   1      35.826   3.489   4.596  0.00  0.00    +0.000 C 
ENDBRANCH   6   7
ENDBRANCH   1   6
TORSDOF 4
REMARK  Name = ../refined-set-2016/1w4q/1w4q_pocket.pdb
REMARK  137 active torsions:
REMARK  status: ('A' for Active; 'I' for Inactive)
REMARK    1  A    between atoms: _1  and  _3
REMARK    2  A    between atoms: _3  and  _4
REMARK    3  A    between atoms: _7  and  _9
REMARK    4  A    between atoms: _9  and  _10
REMARK    5  A    between atoms: _9  and  _12
REMARK    6  A    between atoms: _12  and  _13
REMARK    7  A    between atoms: _13  and  _14
REMARK    8  A    between atoms: _14  and  _15
REMARK    9  A    between atoms: _15  and  _16
REMARK   10  A    between atoms: _20  and  _22
REMARK   11  A    between atoms: _22  and  _23
REMARK   12  A    between atoms: _22  and  _25
REMARK   13  A    between atoms: _25  and  _26
REMARK   14  A    between atoms: _32  and  _34
REMARK   15  A    between atoms: _34  and  _35
REMARK   16  A    between atoms: _34  and  _37
REMARK   17  A    between atoms: _37  and  _38
REMARK   18  A    between atoms: _38  and  _39
REMARK   19  A    between atoms: _39  and  _40
REMARK   20  A    between atoms: _49  and  _51
REMARK   21  A    between atoms: _51  and  _52
REMARK   22  A    between atoms: _51  and  _54
REMARK   23  A    between atoms: _54  and  _55
REMARK   24  A    between atoms: _55  and  _56
REMARK   25  A    between atoms: _61  and  _63
REMARK   26  A    between atoms: _63  and  _64
REMARK   27  A    between atoms: _63  and  _66
REMARK   28  A    between atoms: _66  and  _67
REMARK   29  A    between atoms: _72  and  _74
REMARK   30  A    between atoms: _74  and  _75
REMARK   31  A    between atoms: _74  and  _77
REMARK   32  A    between atoms: _77  and  _78
REMARK   33  A    between atoms: _78  and  _79
REMARK   34  A    between atoms: _81  and  _83
REMARK   35  A    between atoms: _83  and  _84
REMARK   36  A    between atoms: _83  and  _86
REMARK   37  A    between atoms: _86  and  _87
REMARK   38  A    between atoms: _90  and  _92
REMARK   39  A    between atoms: _92  and  _93
REMARK   40  A    between atoms: _92  and  _95
REMARK   41  A    between atoms: _95  and  _96
REMARK   42  A    between atoms: _96  and  _97
REMARK   43  A    between atoms: _97  and  _98
REMARK   44  A    between atoms: _107  and  _109
REMARK   45  A    between atoms: _109  and  _110
REMARK   46  A    between atoms: _109  and  _112
REMARK   47  A    between atoms: _112  and  _113
REMARK   48  A    between atoms: _113  and  _114
REMARK   49  A    between atoms: _114  and  _115
REMARK   50  A    between atoms: _115  and  _116
REMARK   51  A    between atoms: _121  and  _122
REMARK   52  A    between atoms: _127  and  _129
REMARK   53  A    between atoms: _129  and  _130
REMARK   54  A    between atoms: _129  and  _132
REMARK   55  A    between atoms: _135  and  _137
REMARK   56  A    between atoms: _137  and  _138
REMARK   57  A    between atoms: _137  and  _140
REMARK   58  A    between atoms: _140  and  _141
REMARK   59  A    between atoms: _146  and  _148
REMARK   60  A    between atoms: _148  and  _149
REMARK   61  A    between atoms: _148  and  _151
REMARK   62  A    between atoms: _151  and  _152
REMARK   63  A    between atoms: _155  and  _157
REMARK   64  A    between atoms: _157  and  _158
REMARK   65  A    between atoms: _157  and  _160
REMARK   66  A    between atoms: _160  and  _161
REMARK   67  A    between atoms: _167  and  _169
REMARK   68  A    between atoms: _169  and  _170
REMARK   69  A    between atoms: _169  and  _172
REMARK   70  A    between atoms: _172  and  _173
REMARK   71  A    between atoms: _173  and  _174
REMARK   72  A    between atoms: _174  and  _175
REMARK   73  A    between atoms: _175  and  _176
REMARK   74  A    between atoms: _180  and  _182
REMARK   75  A    between atoms: _182  and  _183
REMARK   76  A    between atoms: _182  and  _185
REMARK   77  A    between atoms: _185  and  _186
REMARK   78  A    between atoms: _191  and  _193
REMARK   79  A    between atoms: _193  and  _194
REMARK   80  A    between atoms: _193  and  _196
REMARK   81  A    between atoms: _196  and  _197
REMARK   82  A    between atoms: _200  and  _202
REMARK   83  A    between atoms: _202  and  _203
REMARK   84  A    between atoms: _202  and  _205
REMARK   85  A    between atoms: _205  and  _206
REMARK   86  A    between atoms: _209  and  _211
REMARK   87  A    between atoms: _211  and  _212
REMARK   88  A    between atoms: _211  and  _214
REMARK   89  A    between atoms: _214  and  _215
REMARK   90  A    between atoms: _218  and  _220
REMARK   91  A    between atoms: _220  and  _221
REMARK   92  A    between atoms: _220  and  _223
REMARK   93  A    between atoms: _225  and  _227
REMARK   94  A    between atoms: _227  and  _228
REMARK   95  A    between atoms: _227  and  _230
REMARK   96  A    between atoms: _230  and  _231
REMARK   97  A    between atoms: _231  and  _232
REMARK   98  A    between atoms: _232  and  _233
REMARK   99  A    between atoms: _233  and  _234
REMARK  100  A    between atoms: _238  and  _240
REMARK  101  A    between atoms: _240  and  _241
REMARK  102  A    between atoms: _240  and  _243
REMARK  103  A    between atoms: _243  and  _244
REMARK  104  A    between atoms: _247  and  _249
REMARK  105  A    between atoms: _249  and  _250
REMARK  106  A    between atoms: _249  and  _252
REMARK  107  A    between atoms: _252  and  _253
REMARK  108  A    between atoms: _256  and  _258
REMARK  109  A    between atoms: _258  and  _259
REMARK  110  A    between atoms: _258  and  _261
REMARK  111  A    between atoms: _264  and  _266
REMARK  112  A    between atoms: _266  and  _267
REMARK  113  A    between atoms: _271  and  _272
REMARK  114  A    between atoms: _277  and  _279
REMARK  115  A    between atoms: _279  and  _280
REMARK  116  A    between atoms: _279  and  _282
REMARK  117  A    between atoms: _285  and  _287
REMARK  118  A    between atoms: _287  and  _288
REMARK  119  A    between atoms: _287  and  _290
REMARK  120  A    between atoms: _290  and  _291
REMARK  121  A    between atoms: _296  and  _298
REMARK  122  A    between atoms: _298  and  _299
REMARK  123  A    between atoms: _298  and  _301
REMARK  124  A    between atoms: _301  and  _302
REMARK  125  A    between atoms: _308  and  _310
REMARK  126  A    between atoms: _310  and  _311
REMARK  127  A    between atoms: _310  and  _313
REMARK  128  A    between atoms: _313  and  _314
REMARK  129  A    between atoms: _317  and  _319
REMARK  130  A    between atoms: _319  and  _320
REMARK  131  A    between atoms: _323  and  _325
REMARK  132  A    between atoms: _325  and  _326
REMARK  133  A    between atoms: _325  and  _328
REMARK  134  A    between atoms: _328  and  _329
REMARK  135  A    between atoms: _331  and  _333
REMARK  136  A    between atoms: _333  and  _334
REMARK  137  A    between atoms: _333  and  _336
REMARK                            x       y       z     vdW  Elec       q    Type
REMARK                         _______ _______ _______ _____ _____    ______ ____
ROOT
ATOM      1  NE  ARG A   1      47.489   2.308   7.133  0.00  0.00    -0.265 N 
ATOM      2  CZ  ARG A   1      46.586   1.529   7.719  0.00  0.00    +0.342 C 
ATOM      3  NH2 ARG A   1      46.898   0.284   8.050  0.00  0.00    -0.292 N 
ATOM      4 HH21 ARG A   1      46.191  -0.325   8.509  0.00  0.00    +0.255 HD
ATOM      5 HH22 ARG A   1      47.850  -0.084   7.851  0.00  0.00    +0.255 HD
ATOM      6  NH1 ARG A   1      45.371   1.996   7.979  0.00  0.00    -0.292 N 
ATOM      7 HH11 ARG A   1      44.666   1.384   8.438  0.00  0.00    +0.255 HD
ATOM      8 HH12 ARG A   1      45.124   2.974   7.724  0.00  0.00    +0.255 HD
ATOM      9  HE  ARG A   1      48.431   1.907   6.948  0.00  0.00    +0.259 HD
ENDROOT
BRANCH   1  10
ATOM     10  CD  ARG A   1      47.245   3.690   6.732  0.00  0.00    +0.174 C 
BRANCH  10  11
ATOM     11  CG  ARG A   1      46.392   3.791   5.474  0.00  0.00    +0.045 C 
BRANCH  11  12
ATOM     12  CB  ARG A   1      47.170   3.360   4.234  0.00  0.00    +0.029 C 
BRANCH  12  13
ATOM     13  CA  ARG A   1      46.488   3.734   2.914  0.00  0.00    +0.133 C 
BRANCH  13  14
ATOM     14  N   ARG A   1      46.104   5.138   2.936  0.00  0.00    -0.239 NA
ATOM     15  H   ARG A   1      45.098   5.382   2.840  0.00  0.00    +0.142 HD
ENDBRANCH  13  14
BRANCH  13  16
ATOM     16  C   ARG A   1      45.225   2.905   2.730  0.00  0.00    +0.224 C 
ATOM     17  O   ARG A   1      44.121   3.446   2.735  0.00  0.00    -0.287 OA
ENDBRANCH  13  16
ENDBRANCH  12  13
ENDBRANCH  11  12
ENDBRANCH  10  11
ENDBRANCH   1  10
TORSDOF 6
REMARK  Name = ../refined-set-2016/1w4q/1w4q_pocket.pdb
REMARK  137 active torsions:
REMARK  status: ('A' for Active; 'I' for Inactive)
REMARK    1  A    between atoms: _1  and  _3
REMARK    2  A    between atoms: _3  and  _4
REMARK    3  A    between atoms: _7  and  _9
REMARK    4  A    between atoms: _9  and  _10
REMARK    5  A    between atoms: _9  and  _12
REMARK    6  A    between atoms: _12  and  _13
REMARK    7  A    between atoms: _13  and  _14
REMARK    8  A    between atoms: _14  and  _15
REMARK    9  A    between atoms: _15  and  _16
REMARK   10  A    between atoms: _20  and  _22
REMARK   11  A    between atoms: _22  and  _23
REMARK   12  A    between atoms: _22  and  _25
REMARK   13  A    between atoms: _25  and  _26
REMARK   14  A    between atoms: _32  and  _34
REMARK   15  A    between atoms: _34  and  _35
REMARK   16  A    between atoms: _34  and  _37
REMARK   17  A    between atoms: _37  and  _38
REMARK   18  A    between atoms: _38  and  _39
REMARK   19  A    between atoms: _39  and  _40
REMARK   20  A    between atoms: _49  and  _51
REMARK   21  A    between atoms: _51  and  _52
REMARK   22  A    between atoms: _51  and  _54
REMARK   23  A    between atoms: _54  and  _55
REMARK   24  A    between atoms: _55  and  _56
REMARK   25  A    between atoms: _61  and  _63
REMARK   26  A    between atoms: _63  and  _64
REMARK   27  A    between atoms: _63  and  _66
REMARK   28  A    between atoms: _66  and  _67
REMARK   29  A    between atoms: _72  and  _74
REMARK   30  A    between atoms: _74  and  _75
REMARK   31  A    between atoms: _74  and  _77
REMARK   32  A    between atoms: _77  and  _78
REMARK   33  A    between atoms: _78  and  _79
REMARK   34  A    between atoms: _81  and  _83
REMARK   35  A    between atoms: _83  and  _84
REMARK   36  A    between atoms: _83  and  _86
REMARK   37  A    between atoms: _86  and  _87
REMARK   38  A    between atoms: _90  and  _92
REMARK   39  A    between atoms: _92  and  _93
REMARK   40  A    between atoms: _92  and  _95
REMARK   41  A    between atoms: _95  and  _96
REMARK   42  A    between atoms: _96  and  _97
REMARK   43  A    between atoms: _97  and  _98
REMARK   44  A    between atoms: _107  and  _109
REMARK   45  A    between atoms: _109  and  _110
REMARK   46  A    between atoms: _109  and  _112
REMARK   47  A    between atoms: _112  and  _113
REMARK   48  A    between atoms: _113  and  _114
REMARK   49  A    between atoms: _114  and  _115
REMARK   50  A    between atoms: _115  and  _116
REMARK   51  A    between atoms: _121  and  _122
REMARK   52  A    between atoms: _127  and  _129
REMARK   53  A    between atoms: _129  and  _130
REMARK   54  A    between atoms: _129  and  _132
REMARK   55  A    between atoms: _135  and  _137
REMARK   56  A    between atoms: _137  and  _138
REMARK   57  A    between atoms: _137  and  _140
REMARK   58  A    between atoms: _140  and  _141
REMARK   59  A    between atoms: _146  and  _148
REMARK   60  A    between atoms: _148  and  _149
REMARK   61  A    between atoms: _148  and  _151
REMARK   62  A    between atoms: _151  and  _152
REMARK   63  A    between atoms: _155  and  _157
REMARK   64  A    between atoms: _157  and  _158
REMARK   65  A    between atoms: _157  and  _160
REMARK   66  A    between atoms: _160  and  _161
REMARK   67  A    between atoms: _167  and  _169
REMARK   68  A    between atoms: _169  and  _170
REMARK   69  A    between atoms: _169  and  _172
REMARK   70  A    between atoms: _172  and  _173
REMARK   71  A    between atoms: _173  and  _174
REMARK   72  A    between atoms: _174  and  _175
REMARK   73  A    between atoms: _175  and  _176
REMARK   74  A    between atoms: _180  and  _182
REMARK   75  A    between atoms: _182  and  _183
REMARK   76  A    between atoms: _182  and  _185
REMARK   77  A    between atoms: _185  and  _186
REMARK   78  A    between atoms: _191  and  _193
REMARK   79  A    between atoms: _193  and  _194
REMARK   80  A    between atoms: _193  and  _196
REMARK   81  A    between atoms: _196  and  _197
REMARK   82  A    between atoms: _200  and  _202
REMARK   83  A    between atoms: _202  and  _203
REMARK   84  A    between atoms: _202  and  _205
REMARK   85  A    between atoms: _205  and  _206
REMARK   86  A    between atoms: _209  and  _211
REMARK   87  A    between atoms: _211  and  _212
REMARK   88  A    between atoms: _211  and  _214
REMARK   89  A    between atoms: _214  and  _215
REMARK   90  A    between atoms: _218  and  _220
REMARK   91  A    between atoms: _220  and  _221
REMARK   92  A    between atoms: _220  and  _223
REMARK   93  A    between atoms: _225  and  _227
REMARK   94  A    between atoms: _227  and  _228
REMARK   95  A    between atoms: _227  and  _230
REMARK   96  A    between atoms: _230  and  _231
REMARK   97  A    between atoms: _231  and  _232
REMARK   98  A    between atoms: _232  and  _233
REMARK   99  A    between atoms: _233  and  _234
REMARK  100  A    between atoms: _238  and  _240
REMARK  101  A    between atoms: _240  and  _241
REMARK  102  A    between atoms: _240  and  _243
REMARK  103  A    between atoms: _243  and  _244
REMARK  104  A    between atoms: _247  and  _249
REMARK  105  A    between atoms: _249  and  _250
REMARK  106  A    between atoms: _249  and  _252
REMARK  107  A    between atoms: _252  and  _253
REMARK  108  A    between atoms: _256  and  _258
REMARK  109  A    between atoms: _258  and  _259
REMARK  110  A    between atoms: _258  and  _261
REMARK  111  A    between atoms: _264  and  _266
REMARK  112  A    between atoms: _266  and  _267
REMARK  113  A    between atoms: _271  and  _272
REMARK  114  A    between atoms: _277  and  _279
REMARK  115  A    between atoms: _279  and  _280
REMARK  116  A    between atoms: _279  and  _282
REMARK  117  A    between atoms: _285  and  _287
REMARK  118  A    between atoms: _287  and  _288
REMARK  119  A    between atoms: _287  and  _290
REMARK  120  A    between atoms: _290  and  _291
REMARK  121  A    between atoms: _296  and  _298
REMARK  122  A    between atoms: _298  and  _299
REMARK  123  A    between atoms: _298  and  _301
REMARK  124  A    between atoms: _301  and  _302
REMARK  125  A    between atoms: _308  and  _310
REMARK  126  A    between atoms: _310  and  _311
REMARK  127  A    between atoms: _310  and  _313
REMARK  128  A    between atoms: _313  and  _314
REMARK  129  A    between atoms: _317  and  _319
REMARK  130  A    between atoms: _319  and  _320
REMARK  131  A    between atoms: _323  and  _325
REMARK  132  A    between atoms: _325  and  _326
REMARK  133  A    between atoms: _325  and  _328
REMARK  134  A    between atoms: _328  and  _329
REMARK  135  A    between atoms: _331  and  _333
REMARK  136  A    between atoms: _333  and  _334
REMARK  137  A    between atoms: _333  and  _336
REMARK                            x       y       z     vdW  Elec       q    Type
REMARK                         _______ _______ _______ _____ _____    ______ ____
ROOT
ATOM      1  C   VAL A   3      37.967  -2.534   8.116  0.00  0.00    +0.241 C 
ATOM      2  O   VAL A   3      38.278  -1.610   8.869  0.00  0.00    -0.273 OA
ATOM      3  N   ASN A   4      36.789  -2.606   7.506  0.00  0.00    -0.297 N 
ATOM      4  H   ASN A   4      36.586  -3.411   6.879  0.00  0.00    +0.150 HD
ENDROOT
BRANCH   3   5
ATOM      5  CA  ASN A   4      35.777  -1.577   7.700  0.00  0.00    +0.158 C 
BRANCH   5   6
ATOM      6  C   ASN A   4      34.387  -2.129   7.420  0.00  0.00    +0.241 C 
ATOM      7  N   THR A   5      33.441  -1.833   8.305  0.00  0.00    -0.295 N 
ATOM      8  H   THR A   5      33.677  -1.238   9.124  0.00  0.00    +0.150 HD
ATOM      9  O   ASN A   4      34.168  -2.785   6.408  0.00  0.00    -0.273 OA
BRANCH   7  10
ATOM     10  CA  THR A   5      32.078  -2.328   8.148  0.00  0.00    +0.176 C 
BRANCH  10  11
ATOM     11  C   THR A   5      31.069  -1.229   7.823  0.00  0.00    +0.243 C 
ATOM     12  O   THR A   5      31.137  -0.129   8.369  0.00  0.00    -0.273 OA
ATOM     13  N   PHE A   6      30.139  -1.541   6.924  0.00  0.00    -0.298 N 
ATOM     14  H   PHE A   6      30.165  -2.484   6.486  0.00  0.00    +0.150 HD
BRANCH  13  15
ATOM     15  CA  PHE A   6      29.082  -0.612   6.527  0.00  0.00    +0.141 C 
BRANCH  15  16
ATOM     16  C   PHE A   6      27.759  -1.175   7.041  0.00  0.00    +0.227 C 
ATOM     17  O   PHE A   6      27.482  -2.367   6.888  0.00  0.00    -0.286 OA
ENDBRANCH  15  16
BRANCH  15  18
ATOM     18  CB  PHE A   6      29.036  -0.479   4.999  0.00  0.00    +0.054 C 
BRANCH  18  19
ATOM     19  CG  PHE A   6      30.177   0.310   4.424  0.00  0.00    -0.020 A 
ATOM     20  CD2 PHE A   6      30.187   1.697   4.495  0.00  0.00    -0.004 A 
ATOM     21  CE2 PHE A   6      31.256   2.431   3.983  0.00  0.00    -0.000 A 
ATOM     22  CZ  PHE A   6      32.330   1.773   3.394  0.00  0.00    -0.000 A 
ATOM     23  CE1 PHE A   6      32.332   0.388   3.316  0.00  0.00    -0.000 A 
ATOM     24  CD1 PHE A   6      31.255  -0.338   3.831  0.00  0.00    -0.004 A 
ENDBRANCH  18  19
ENDBRANCH  15  18
ENDBRANCH  13  15
ENDBRANCH  10  11
BRANCH  10  25
ATOM     25  CB  THR A   5      31.618  -3.042   9.431  0.00  0.00    +0.137 C 
ATOM     26  CG2 THR A   5      30.218  -3.617   9.255  0.00  0.00    +0.034 C 
BRANCH  25  27
ATOM     27  OG1 THR A   5      32.534  -4.102   9.733  0.00  0.00    -0.382 OA
ATOM     28  HG1 THR A   5      32.551  -4.746   8.981  0.00  0.00    +0.210 HD
ENDBRANCH  25  27
ENDBRANCH  10  25
ENDBRANCH   7  10
ENDBRANCH   5   6
BRANCH   5  29
ATOM     29  CB  ASN A   4      36.040  -0.390   6.778  0.00  0.00    +0.114 C 
BRANCH  29  30
ATOM     30  CG  ASN A   4      35.130   0.779   7.078  0.00  0.00    +0.222 C 
ATOM     31  OD1 ASN A   4      35.313   1.473   8.077  0.00  0.00    -0.275 OA
ATOM     32  ND2 ASN A   4      34.133   0.996   6.223  0.00  0.00    -0.329 N 
ATOM     33 HD21 ASN A   4      33.469   1.779   6.387  0.00  0.00    +0.145 HD
ATOM     34 HD22 ASN A   4      34.018   0.382   5.391  0.00  0.00    +0.145 HD
ENDBRANCH  29  30
ENDBRANCH   5  29
ENDBRANCH   3   5
BRANCH   1  35
ATOM     35  CA  VAL A   3      38.939  -3.668   7.837  0.00  0.00    +0.149 C 
BRANCH  35  37
ATOM     36  C   PRO A   2      41.063  -3.640   6.664  0.00  0.00    +0.241 C 
ATOM     37  N   VAL A   3      40.283  -3.150   7.620  0.00  0.00    -0.297 N 
ATOM     38  H   VAL A   3      40.638  -2.382   8.225  0.00  0.00    +0.150 HD
ATOM     39  O   PRO A   2      40.708  -4.550   5.917  0.00  0.00    -0.273 OA
BRANCH  36  45
ATOM     40  C   LYS A   1      41.860  -0.815   5.538  0.00  0.00    +0.241 C 
ATOM     41  N   PRO A   2      42.551  -1.574   6.403  0.00  0.00    -0.272 N 
ATOM     42  CD  PRO A   2      43.518  -1.028   7.372  0.00  0.00    +0.094 C 
ATOM     43  CG  PRO A   2      44.349  -2.240   7.704  0.00  0.00    +0.024 C 
ATOM     44  CB  PRO A   2      43.315  -3.312   7.773  0.00  0.00    +0.031 C 
ATOM     45  CA  PRO A   2      42.460  -3.032   6.540  0.00  0.00    +0.152 C 
ATOM     46  O   LYS A   1      41.053  -1.296   4.743  0.00  0.00    -0.273 OA
BRANCH  40  47
ATOM     47  CA  LYS A   1      42.125   0.688   5.563  0.00  0.00    +0.145 C 
BRANCH  47  48
ATOM     48  N   LYS A   1      42.634   1.008   4.234  0.00  0.00    -0.238 NA
ATOM     49  H   LYS A   1      42.146   1.705   3.636  0.00  0.00    +0.142 HD
ENDBRANCH  47  48
BRANCH  47  50
ATOM     50  CB  LYS A   1      40.835   1.453   5.866  0.00  0.00    +0.026 C 
BRANCH  50  51
ATOM     51  CG  LYS A   1      40.343   1.234   7.295  0.00  0.00    -0.000 C 
BRANCH  51  52
ATOM     52  CD  LYS A   1      39.137   2.089   7.638  0.00  0.00    -0.024 C 
BRANCH  52  53
ATOM     53  CE  LYS A   1      38.651   1.774   9.051  0.00  0.00    -0.086 C 
BRANCH  53  54
ATOM     54  NZ  LYS A   1      37.501   2.618   9.461  0.00  0.00    +0.380 N 
ATOM     55  HZ1 LYS A   1      37.212   2.363  10.427  0.00  0.00    -0.089 HD
ATOM     56  HZ2 LYS A   1      37.781   3.619   9.435  0.00  0.00    -0.089 HD
ATOM     57  HZ3 LYS A   1      36.707   2.461   8.808  0.00  0.00    -0.089 HD
ENDBRANCH  53  54
ENDBRANCH  52  53
ENDBRANCH  51  52
ENDBRANCH  50  51
ENDBRANCH  47  50
ENDBRANCH  40  47
ENDBRANCH  36  45
ENDBRANCH  35  37
BRANCH  35  58
ATOM     58  CB  VAL A   3      38.912  -4.655   9.028  0.00  0.00    +0.027 C 
ATOM     59  CG2 VAL A   3      39.433  -3.977  10.277  0.00  0.00    +0.002 C 
ATOM     60  CG1 VAL A   3      37.498  -5.166   9.255  0.00  0.00    +0.002 C 
ENDBRANCH  35  58
ENDBRANCH   1  35
TORSDOF 23
REMARK  Name = ../refined-set-2016/1w4q/1w4q_pocket.pdb
REMARK  137 active torsions:
REMARK  status: ('A' for Active; 'I' for Inactive)
REMARK    1  A    between atoms: _1  and  _3
REMARK    2  A    between atoms: _3  and  _4
REMARK    3  A    between atoms: _7  and  _9
REMARK    4  A    between atoms: _9  and  _10
REMARK    5  A    between atoms: _9  and  _12
REMARK    6  A    between atoms: _12  and  _13
REMARK    7  A    between atoms: _13  and  _14
REMARK    8  A    between atoms: _14  and  _15
REMARK    9  A    between atoms: _15  and  _16
REMARK   10  A    between atoms: _20  and  _22
REMARK   11  A    between atoms: _22  and  _23
REMARK   12  A    between atoms: _22  and  _25
REMARK   13  A    between atoms: _25  and  _26
REMARK   14  A    between atoms: _32  and  _34
REMARK   15  A    between atoms: _34  and  _35
REMARK   16  A    between atoms: _34  and  _37
REMARK   17  A    between atoms: _37  and  _38
REMARK   18  A    between atoms: _38  and  _39
REMARK   19  A    between atoms: _39  and  _40
REMARK   20  A    between atoms: _49  and  _51
REMARK   21  A    between atoms: _51  and  _52
REMARK   22  A    between atoms: _51  and  _54
REMARK   23  A    between atoms: _54  and  _55
REMARK   24  A    between atoms: _55  and  _56
REMARK   25  A    between atoms: _61  and  _63
REMARK   26  A    between atoms: _63  and  _64
REMARK   27  A    between atoms: _63  and  _66
REMARK   28  A    between atoms: _66  and  _67
REMARK   29  A    between atoms: _72  and  _74
REMARK   30  A    between atoms: _74  and  _75
REMARK   31  A    between atoms: _74  and  _77
REMARK   32  A    between atoms: _77  and  _78
REMARK   33  A    between atoms: _78  and  _79
REMARK   34  A    between atoms: _81  and  _83
REMARK   35  A    between atoms: _83  and  _84
REMARK   36  A    between atoms: _83  and  _86
REMARK   37  A    between atoms: _86  and  _87
REMARK   38  A    between atoms: _90  and  _92
REMARK   39  A    between atoms: _92  and  _93
REMARK   40  A    between atoms: _92  and  _95
REMARK   41  A    between atoms: _95  and  _96
REMARK   42  A    between atoms: _96  and  _97
REMARK   43  A    between atoms: _97  and  _98
REMARK   44  A    between atoms: _107  and  _109
REMARK   45  A    between atoms: _109  and  _110
REMARK   46  A    between atoms: _109  and  _112
REMARK   47  A    between atoms: _112  and  _113
REMARK   48  A    between atoms: _113  and  _114
REMARK   49  A    between atoms: _114  and  _115
REMARK   50  A    between atoms: _115  and  _116
REMARK   51  A    between atoms: _121  and  _122
REMARK   52  A    between atoms: _127  and  _129
REMARK   53  A    between atoms: _129  and  _130
REMARK   54  A    between atoms: _129  and  _132
REMARK   55  A    between atoms: _135  and  _137
REMARK   56  A    between atoms: _137  and  _138
REMARK   57  A    between atoms: _137  and  _140
REMARK   58  A    between atoms: _140  and  _141
REMARK   59  A    between atoms: _146  and  _148
REMARK   60  A    between atoms: _148  and  _149
REMARK   61  A    between atoms: _148  and  _151
REMARK   62  A    between atoms: _151  and  _152
REMARK   63  A    between atoms: _155  and  _157
REMARK   64  A    between atoms: _157  and  _158
REMARK   65  A    between atoms: _157  and  _160
REMARK   66  A    between atoms: _160  and  _161
REMARK   67  A    between atoms: _167  and  _169
REMARK   68  A    between atoms: _169  and  _170
REMARK   69  A    between atoms: _169  and  _172
REMARK   70  A    between atoms: _172  and  _173
REMARK   71  A    between atoms: _173  and  _174
REMARK   72  A    between atoms: _174  and  _175
REMARK   73  A    between atoms: _175  and  _176
REMARK   74  A    between atoms: _180  and  _182
REMARK   75  A    between atoms: _182  and  _183
REMARK   76  A    between atoms: _182  and  _185
REMARK   77  A    between atoms: _185  and  _186
REMARK   78  A    between atoms: _191  and  _193
REMARK   79  A    between atoms: _193  and  _194
REMARK   80  A    between atoms: _193  and  _196
REMARK   81  A    between atoms: _196  and  _197
REMARK   82  A    between atoms: _200  and  _202
REMARK   83  A    between atoms: _202  and  _203
REMARK   84  A    between atoms: _202  and  _205
REMARK   85  A    between atoms: _205  and  _206
REMARK   86  A    between atoms: _209  and  _211
REMARK   87  A    between atoms: _211  and  _212
REMARK   88  A    between atoms: _211  and  _214
REMARK   89  A    between atoms: _214  and  _215
REMARK   90  A    between atoms: _218  and  _220
REMARK   91  A    between atoms: _220  and  _221
REMARK   92  A    between atoms: _220  and  _223
REMARK   93  A    between atoms: _225  and  _227
REMARK   94  A    between atoms: _227  and  _228
REMARK   95  A    between atoms: _227  and  _230
REMARK   96  A    between atoms: _230  and  _231
REMARK   97  A    between atoms: _231  and  _232
REMARK   98  A    between atoms: _232  and  _233
REMARK   99  A    between atoms: _233  and  _234
REMARK  100  A    between atoms: _238  and  _240
REMARK  101  A    between atoms: _240  and  _241
REMARK  102  A    between atoms: _240  and  _243
REMARK  103  A    between atoms: _243  and  _244
REMARK  104  A    between atoms: _247  and  _249
REMARK  105  A    between atoms: _249  and  _250
REMARK  106  A    between atoms: _249  and  _252
REMARK  107  A    between atoms: _252  and  _253
REMARK  108  A    between atoms: _256  and  _258
REMARK  109  A    between atoms: _258  and  _259
REMARK  110  A    between atoms: _258  and  _261
REMARK  111  A    between atoms: _264  and  _266
REMARK  112  A    between atoms: _266  and  _267
REMARK  113  A    between atoms: _271  and  _272
REMARK  114  A    between atoms: _277  and  _279
REMARK  115  A    between atoms: _279  and  _280
REMARK  116  A    between atoms: _279  and  _282
REMARK  117  A    between atoms: _285  and  _287
REMARK  118  A    between atoms: _287  and  _288
REMARK  119  A    between atoms: _287  and  _290
REMARK  120  A    between atoms: _290  and  _291
REMARK  121  A    between atoms: _296  and  _298
REMARK  122  A    between atoms: _298  and  _299
REMARK  123  A    between atoms: _298  and  _301
REMARK  124  A    between atoms: _301  and  _302
REMARK  125  A    between atoms: _308  and  _310
REMARK  126  A    between atoms: _310  and  _311
REMARK  127  A    between atoms: _310  and  _313
REMARK  128  A    between atoms: _313  and  _314
REMARK  129  A    between atoms: _317  and  _319
REMARK  130  A    between atoms: _319  and  _320
REMARK  131  A    between atoms: _323  and  _325
REMARK  132  A    between atoms: _325  and  _326
REMARK  133  A    between atoms: _325  and  _328
REMARK  134  A    between atoms: _328  and  _329
REMARK  135  A    between atoms: _331  and  _333
REMARK  136  A    between atoms: _333  and  _334
REMARK  137  A    between atoms: _333  and  _336
REMARK                            x       y       z     vdW  Elec       q    Type
REMARK                         _______ _______ _______ _____ _____    ______ ____
ROOT
ATOM      1  C   LYS A   1      39.001  -3.527  23.634  0.00  0.00    +0.238 C 
ATOM      2  O   LYS A   1      39.909  -4.197  24.126  0.00  0.00    -0.274 OA
ATOM      3  N   ASN A   2      38.991  -2.195  23.659  0.00  0.00    -0.298 N 
ATOM      4  H   ASN A   2      38.183  -1.684  23.249  0.00  0.00    +0.150 HD
ENDROOT
BRANCH   1   5
ATOM      5  CA  LYS A   1      37.805  -4.220  22.981  0.00  0.00    +0.145 C 
BRANCH   5   6
ATOM      6  N   LYS A   1      36.589  -3.427  23.136  0.00  0.00    -0.238 NA
ATOM      7  H   LYS A   1      36.059  -3.134  22.290  0.00  0.00    +0.142 HD
ENDBRANCH   5   6
BRANCH   5   8
ATOM      8  CB  LYS A   1      38.100  -4.473  21.498  0.00  0.00    +0.026 C 
BRANCH   8   9
ATOM      9  CG  LYS A   1      37.169  -5.484  20.836  0.00  0.00    -0.000 C 
BRANCH   9  10
ATOM     10  CD  LYS A   1      37.484  -5.644  19.357  0.00  0.00    -0.024 C 
BRANCH  10  11
ATOM     11  CE  LYS A   1      36.560  -6.654  18.701  0.00  0.00    -0.086 C 
BRANCH  11  12
ATOM     12  NZ  LYS A   1      36.749  -6.701  17.225  0.00  0.00    +0.380 N 
ATOM     13  HZ1 LYS A   1      37.731  -6.969  17.011  0.00  0.00    -0.089 HD
ATOM     14  HZ2 LYS A   1      36.548  -5.764  16.821  0.00  0.00    -0.089 HD
ATOM     15  HZ3 LYS A   1      36.100  -7.403  16.816  0.00  0.00    -0.089 HD
ENDBRANCH  11  12
ENDBRANCH  10  11
ENDBRANCH   9  10
ENDBRANCH   8   9
ENDBRANCH   5   8
ENDBRANCH   1   5
BRANCH   3  16
ATOM     16  CA  ASN A   2      40.095  -1.436  24.252  0.00  0.00    +0.146 C 
BRANCH  16  17
ATOM     17  C   ASN A   2      39.995  -1.267  25.767  0.00  0.00    +0.227 C 
ATOM     18  O   ASN A   2      40.802  -0.560  26.372  0.00  0.00    -0.286 OA
ENDBRANCH  16  17
BRANCH  16  19
ATOM     19  CB  ASN A   2      40.216  -0.052  23.593  0.00  0.00    +0.112 C 
BRANCH  19  20
ATOM     20  CG  ASN A   2      39.072   0.883  23.958  0.00  0.00    +0.222 C 
ATOM     21  OD1 ASN A   2      38.163   0.517  24.696  0.00  0.00    -0.275 OA
ATOM     22  ND2 ASN A   2      39.119   2.107  23.434  0.00  0.00    -0.329 N 
ATOM     23 HD21 ASN A   2      38.367   2.793  23.646  0.00  0.00    +0.145 HD
ATOM     24 HD22 ASN A   2      39.908   2.377  22.813  0.00  0.00    +0.145 HD
ENDBRANCH  19  20
ENDBRANCH  16  19
ENDBRANCH   3  16
TORSDOF 11
REMARK  Name = ../refined-set-2016/1w4q/1w4q_pocket.pdb
REMARK  137 active torsions:
REMARK  status: ('A' for Active; 'I' for Inactive)
REMARK    1  A    between atoms: _1  and  _3
REMARK    2  A    between atoms: _3  and  _4
REMARK    3  A    between atoms: _7  and  _9
REMARK    4  A    between atoms: _9  and  _10
REMARK    5  A    between atoms: _9  and  _12
REMARK    6  A    between atoms: _12  and  _13
REMARK    7  A    between atoms: _13  and  _14
REMARK    8  A    between atoms: _14  and  _15
REMARK    9  A    between atoms: _15  and  _16
REMARK   10  A    between atoms: _20  and  _22
REMARK   11  A    between atoms: _22  and  _23
REMARK   12  A    between atoms: _22  and  _25
REMARK   13  A    between atoms: _25  and  _26
REMARK   14  A    between atoms: _32  and  _34
REMARK   15  A    between atoms: _34  and  _35
REMARK   16  A    between atoms: _34  and  _37
REMARK   17  A    between atoms: _37  and  _38
REMARK   18  A    between atoms: _38  and  _39
REMARK   19  A    between atoms: _39  and  _40
REMARK   20  A    between atoms: _49  and  _51
REMARK   21  A    between atoms: _51  and  _52
REMARK   22  A    between atoms: _51  and  _54
REMARK   23  A    between atoms: _54  and  _55
REMARK   24  A    between atoms: _55  and  _56
REMARK   25  A    between atoms: _61  and  _63
REMARK   26  A    between atoms: _63  and  _64
REMARK   27  A    between atoms: _63  and  _66
REMARK   28  A    between atoms: _66  and  _67
REMARK   29  A    between atoms: _72  and  _74
REMARK   30  A    between atoms: _74  and  _75
REMARK   31  A    between atoms: _74  and  _77
REMARK   32  A    between atoms: _77  and  _78
REMARK   33  A    between atoms: _78  and  _79
REMARK   34  A    between atoms: _81  and  _83
REMARK   35  A    between atoms: _83  and  _84
REMARK   36  A    between atoms: _83  and  _86
REMARK   37  A    between atoms: _86  and  _87
REMARK   38  A    between atoms: _90  and  _92
REMARK   39  A    between atoms: _92  and  _93
REMARK   40  A    between atoms: _92  and  _95
REMARK   41  A    between atoms: _95  and  _96
REMARK   42  A    between atoms: _96  and  _97
REMARK   43  A    between atoms: _97  and  _98
REMARK   44  A    between atoms: _107  and  _109
REMARK   45  A    between atoms: _109  and  _110
REMARK   46  A    between atoms: _109  and  _112
REMARK   47  A    between atoms: _112  and  _113
REMARK   48  A    between atoms: _113  and  _114
REMARK   49  A    between atoms: _114  and  _115
REMARK   50  A    between atoms: _115  and  _116
REMARK   51  A    between atoms: _121  and  _122
REMARK   52  A    between atoms: _127  and  _129
REMARK   53  A    between atoms: _129  and  _130
REMARK   54  A    between atoms: _129  and  _132
REMARK   55  A    between atoms: _135  and  _137
REMARK   56  A    between atoms: _137  and  _138
REMARK   57  A    between atoms: _137  and  _140
REMARK   58  A    between atoms: _140  and  _141
REMARK   59  A    between atoms: _146  and  _148
REMARK   60  A    between atoms: _148  and  _149
REMARK   61  A    between atoms: _148  and  _151
REMARK   62  A    between atoms: _151  and  _152
REMARK   63  A    between atoms: _155  and  _157
REMARK   64  A    between atoms: _157  and  _158
REMARK   65  A    between atoms: _157  and  _160
REMARK   66  A    between atoms: _160  and  _161
REMARK   67  A    between atoms: _167  and  _169
REMARK   68  A    between atoms: _169  and  _170
REMARK   69  A    between atoms: _169  and  _172
REMARK   70  A    between atoms: _172  and  _173
REMARK   71  A    between atoms: _173  and  _174
REMARK   72  A    between atoms: _174  and  _175
REMARK   73  A    between atoms: _175  and  _176
REMARK   74  A    between atoms: _180  and  _182
REMARK   75  A    between atoms: _182  and  _183
REMARK   76  A    between atoms: _182  and  _185
REMARK   77  A    between atoms: _185  and  _186
REMARK   78  A    between atoms: _191  and  _193
REMARK   79  A    between atoms: _193  and  _194
REMARK   80  A    between atoms: _193  and  _196
REMARK   81  A    between atoms: _196  and  _197
REMARK   82  A    between atoms: _200  and  _202
REMARK   83  A    between atoms: _202  and  _203
REMARK   84  A    between atoms: _202  and  _205
REMARK   85  A    between atoms: _205  and  _206
REMARK   86  A    between atoms: _209  and  _211
REMARK   87  A    between atoms: _211  and  _212
REMARK   88  A    between atoms: _211  and  _214
REMARK   89  A    between atoms: _214  and  _215
REMARK   90  A    between atoms: _218  and  _220
REMARK   91  A    between atoms: _220  and  _221
REMARK   92  A    between atoms: _220  and  _223
REMARK   93  A    between atoms: _225  and  _227
REMARK   94  A    between atoms: _227  and  _228
REMARK   95  A    between atoms: _227  and  _230
REMARK   96  A    between atoms: _230  and  _231
REMARK   97  A    between atoms: _231  and  _232
REMARK   98  A    between atoms: _232  and  _233
REMARK   99  A    between atoms: _233  and  _234
REMARK  100  A    between atoms: _238  and  _240
REMARK  101  A    between atoms: _240  and  _241
REMARK  102  A    between atoms: _240  and  _243
REMARK  103  A    between atoms: _243  and  _244
REMARK  104  A    between atoms: _247  and  _249
REMARK  105  A    between atoms: _249  and  _250
REMARK  106  A    between atoms: _249  and  _252
REMARK  107  A    between atoms: _252  and  _253
REMARK  108  A    between atoms: _256  and  _258
REMARK  109  A    between atoms: _258  and  _259
REMARK  110  A    between atoms: _258  and  _261
REMARK  111  A    between atoms: _264  and  _266
REMARK  112  A    between atoms: _266  and  _267
REMARK  113  A    between atoms: _271  and  _272
REMARK  114  A    between atoms: _277  and  _279
REMARK  115  A    between atoms: _279  and  _280
REMARK  116  A    between atoms: _279  and  _282
REMARK  117  A    between atoms: _285  and  _287
REMARK  118  A    between atoms: _287  and  _288
REMARK  119  A    between atoms: _287  and  _290
REMARK  120  A    between atoms: _290  and  _291
REMARK  121  A    between atoms: _296  and  _298
REMARK  122  A    between atoms: _298  and  _299
REMARK  123  A    between atoms: _298  and  _301
REMARK  124  A    between atoms: _301  and  _302
REMARK  125  A    between atoms: _308  and  _310
REMARK  126  A    between atoms: _310  and  _311
REMARK  127  A    between atoms: _310  and  _313
REMARK  128  A    between atoms: _313  and  _314
REMARK  129  A    between atoms: _317  and  _319
REMARK  130  A    between atoms: _319  and  _320
REMARK  131  A    between atoms: _323  and  _325
REMARK  132  A    between atoms: _325  and  _326
REMARK  133  A    between atoms: _325  and  _328
REMARK  134  A    between atoms: _328  and  _329
REMARK  135  A    between atoms: _331  and  _333
REMARK  136  A    between atoms: _333  and  _334
REMARK  137  A    between atoms: _333  and  _336
REMARK                            x       y       z     vdW  Elec       q    Type
REMARK                         _______ _______ _______ _____ _____    ______ ____
ROOT
ATOM      1  C   THR A   2      30.159  -5.289   5.476  0.00  0.00    +0.243 C 
ATOM      2  O   THR A   2      30.548  -4.152   5.759  0.00  0.00    -0.273 OA
ATOM      3  N   ASP A   3      30.904  -6.375   5.637  0.00  0.00    -0.296 N 
ATOM      4  H   ASP A   3      30.501  -7.308   5.416  0.00  0.00    +0.150 HD
ENDROOT
BRANCH   1   5
ATOM      5  CA  THR A   2      28.756  -5.516   4.947  0.00  0.00    +0.176 C 
BRANCH   5   7
ATOM      6  C   ILE A   1      26.758  -5.730   6.316  0.00  0.00    +0.238 C 
ATOM      7  N   THR A   2      27.838  -5.041   5.970  0.00  0.00    -0.295 N 
ATOM      8  H   THR A   2      28.033  -4.136   6.444  0.00  0.00    +0.150 HD
ATOM      9  O   ILE A   1      26.421  -6.783   5.772  0.00  0.00    -0.274 OA
BRANCH   6  10
ATOM     10  CA  ILE A   1      25.930  -5.122   7.434  0.00  0.00    +0.145 C 
BRANCH  10  11
ATOM     11  N   ILE A   1      24.633  -5.775   7.557  0.00  0.00    -0.238 NA
ATOM     12  H   ILE A   1      24.568  -6.811   7.492  0.00  0.00    +0.142 HD
ENDBRANCH  10  11
BRANCH  10  13
ATOM     13  CB  ILE A   1      26.755  -5.228   8.744  0.00  0.00    +0.025 C 
ATOM     14  CG2 ILE A   1      25.932  -4.699   9.921  0.00  0.00    +0.002 C 
BRANCH  13  15
ATOM     15  CG1 ILE A   1      27.170  -6.684   8.994  0.00  0.00    +0.002 C 
ATOM     16  CD1 ILE A   1      28.055  -6.878  10.216  0.00  0.00    +0.000 C 
ENDBRANCH  13  15
ENDBRANCH  10  13
ENDBRANCH   6  10
ENDBRANCH   5   7
BRANCH   5  17
ATOM     17  CB  THR A   2      28.604  -4.751   3.616  0.00  0.00    +0.137 C 
ATOM     18  CG2 THR A   2      29.673  -5.201   2.623  0.00  0.00    +0.034 C 
BRANCH  17  19
ATOM     19  OG1 THR A   2      27.314  -5.008   3.052  0.00  0.00    -0.382 OA
ATOM     20  HG1 THR A   2      26.613  -4.708   3.684  0.00  0.00    +0.210 HD
ENDBRANCH  17  19
ENDBRANCH   5  17
ENDBRANCH   1   5
BRANCH   3  21
ATOM     21  CA  ASP A   3      32.272  -6.284   6.116  0.00  0.00    +0.160 C 
BRANCH  21  22
ATOM     22  C   ASP A   3      33.213  -6.213   4.928  0.00  0.00    +0.241 C 
ATOM     23  N   CYS A   4      34.160  -5.288   4.995  0.00  0.00    -0.297 N 
ATOM     24  H   CYS A   4      34.200  -4.661   5.824  0.00  0.00    +0.150 HD
ATOM     25  O   ASP A   3      33.075  -6.972   3.967  0.00  0.00    -0.273 OA
BRANCH  23  26
ATOM     26  CA  CYS A   4      35.143  -5.129   3.938  0.00  0.00    +0.149 C 
BRANCH  26  27
ATOM     27  C   CYS A   4      36.511  -5.477   4.511  0.00  0.00    +0.228 C 
ATOM     28  O   CYS A   4      36.989  -4.832   5.446  0.00  0.00    -0.286 OA
ENDBRANCH  26  27
BRANCH  26  29
ATOM     29  CB  CYS A   4      35.138  -3.693   3.416  0.00  0.00    +0.096 C 
ATOM     30  SG  CYS A   4      33.587  -3.173   2.611  0.00  0.00    -0.080 S 
ENDBRANCH  26  29
ENDBRANCH  23  26
ENDBRANCH  21  22
BRANCH  21  31
ATOM     31  CB  ASP A   3      32.640  -7.500   6.969  0.00  0.00    +0.143 C 
BRANCH  31  32
ATOM     32  CG  ASP A   3      31.916  -7.518   8.294  0.00  0.00    +0.367 C 
ATOM     33  OD2 ASP A   3      31.916  -6.479   8.986  0.00  0.00    -0.246 OA
ATOM     34  OD1 ASP A   3      31.356  -8.575   8.650  0.00  0.00    -0.246 OA
ENDBRANCH  31  32
ENDBRANCH  21  31
ENDBRANCH   3  21
TORSDOF 15
REMARK  Name = ../refined-set-2016/1w4q/1w4q_pocket.pdb
REMARK  137 active torsions:
REMARK  status: ('A' for Active; 'I' for Inactive)
REMARK    1  A    between atoms: _1  and  _3
REMARK    2  A    between atoms: _3  and  _4
REMARK    3  A    between atoms: _7  and  _9
REMARK    4  A    between atoms: _9  and  _10
REMARK    5  A    between atoms: _9  and  _12
REMARK    6  A    between atoms: _12  and  _13
REMARK    7  A    between atoms: _13  and  _14
REMARK    8  A    between atoms: _14  and  _15
REMARK    9  A    between atoms: _15  and  _16
REMARK   10  A    between atoms: _20  and  _22
REMARK   11  A    between atoms: _22  and  _23
REMARK   12  A    between atoms: _22  and  _25
REMARK   13  A    between atoms: _25  and  _26
REMARK   14  A    between atoms: _32  and  _34
REMARK   15  A    between atoms: _34  and  _35
REMARK   16  A    between atoms: _34  and  _37
REMARK   17  A    between atoms: _37  and  _38
REMARK   18  A    between atoms: _38  and  _39
REMARK   19  A    between atoms: _39  and  _40
REMARK   20  A    between atoms: _49  and  _51
REMARK   21  A    between atoms: _51  and  _52
REMARK   22  A    between atoms: _51  and  _54
REMARK   23  A    between atoms: _54  and  _55
REMARK   24  A    between atoms: _55  and  _56
REMARK   25  A    between atoms: _61  and  _63
REMARK   26  A    between atoms: _63  and  _64
REMARK   27  A    between atoms: _63  and  _66
REMARK   28  A    between atoms: _66  and  _67
REMARK   29  A    between atoms: _72  and  _74
REMARK   30  A    between atoms: _74  and  _75
REMARK   31  A    between atoms: _74  and  _77
REMARK   32  A    between atoms: _77  and  _78
REMARK   33  A    between atoms: _78  and  _79
REMARK   34  A    between atoms: _81  and  _83
REMARK   35  A    between atoms: _83  and  _84
REMARK   36  A    between atoms: _83  and  _86
REMARK   37  A    between atoms: _86  and  _87
REMARK   38  A    between atoms: _90  and  _92
REMARK   39  A    between atoms: _92  and  _93
REMARK   40  A    between atoms: _92  and  _95
REMARK   41  A    between atoms: _95  and  _96
REMARK   42  A    between atoms: _96  and  _97
REMARK   43  A    between atoms: _97  and  _98
REMARK   44  A    between atoms: _107  and  _109
REMARK   45  A    between atoms: _109  and  _110
REMARK   46  A    between atoms: _109  and  _112
REMARK   47  A    between atoms: _112  and  _113
REMARK   48  A    between atoms: _113  and  _114
REMARK   49  A    between atoms: _114  and  _115
REMARK   50  A    between atoms: _115  and  _116
REMARK   51  A    between atoms: _121  and  _122
REMARK   52  A    between atoms: _127  and  _129
REMARK   53  A    between atoms: _129  and  _130
REMARK   54  A    between atoms: _129  and  _132
REMARK   55  A    between atoms: _135  and  _137
REMARK   56  A    between atoms: _137  and  _138
REMARK   57  A    between atoms: _137  and  _140
REMARK   58  A    between atoms: _140  and  _141
REMARK   59  A    between atoms: _146  and  _148
REMARK   60  A    between atoms: _148  and  _149
REMARK   61  A    between atoms: _148  and  _151
REMARK   62  A    between atoms: _151  and  _152
REMARK   63  A    between atoms: _155  and  _157
REMARK   64  A    between atoms: _157  and  _158
REMARK   65  A    between atoms: _157  and  _160
REMARK   66  A    between atoms: _160  and  _161
REMARK   67  A    between atoms: _167  and  _169
REMARK   68  A    between atoms: _169  and  _170
REMARK   69  A    between atoms: _169  and  _172
REMARK   70  A    between atoms: _172  and  _173
REMARK   71  A    between atoms: _173  and  _174
REMARK   72  A    between atoms: _174  and  _175
REMARK   73  A    between atoms: _175  and  _176
REMARK   74  A    between atoms: _180  and  _182
REMARK   75  A    between atoms: _182  and  _183
REMARK   76  A    between atoms: _182  and  _185
REMARK   77  A    between atoms: _185  and  _186
REMARK   78  A    between atoms: _191  and  _193
REMARK   79  A    between atoms: _193  and  _194
REMARK   80  A    between atoms: _193  and  _196
REMARK   81  A    between atoms: _196  and  _197
REMARK   82  A    between atoms: _200  and  _202
REMARK   83  A    between atoms: _202  and  _203
REMARK   84  A    between atoms: _202  and  _205
REMARK   85  A    between atoms: _205  and  _206
REMARK   86  A    between atoms: _209  and  _211
REMARK   87  A    between atoms: _211  and  _212
REMARK   88  A    between atoms: _211  and  _214
REMARK   89  A    between atoms: _214  and  _215
REMARK   90  A    between atoms: _218  and  _220
REMARK   91  A    between atoms: _220  and  _221
REMARK   92  A    between atoms: _220  and  _223
REMARK   93  A    between atoms: _225  and  _227
REMARK   94  A    between atoms: _227  and  _228
REMARK   95  A    between atoms: _227  and  _230
REMARK   96  A    between atoms: _230  and  _231
REMARK   97  A    between atoms: _231  and  _232
REMARK   98  A    between atoms: _232  and  _233
REMARK   99  A    between atoms: _233  and  _234
REMARK  100  A    between atoms: _238  and  _240
REMARK  101  A    between atoms: _240  and  _241
REMARK  102  A    between atoms: _240  and  _243
REMARK  103  A    between atoms: _243  and  _244
REMARK  104  A    between atoms: _247  and  _249
REMARK  105  A    between atoms: _249  and  _250
REMARK  106  A    between atoms: _249  and  _252
REMARK  107  A    between atoms: _252  and  _253
REMARK  108  A    between atoms: _256  and  _258
REMARK  109  A    between atoms: _258  and  _259
REMARK  110  A    between atoms: _258  and  _261
REMARK  111  A    between atoms: _264  and  _266
REMARK  112  A    between atoms: _266  and  _267
REMARK  113  A    between atoms: _271  and  _272
REMARK  114  A    between atoms: _277  and  _279
REMARK  115  A    between atoms: _279  and  _280
REMARK  116  A    between atoms: _279  and  _282
REMARK  117  A    between atoms: _285  and  _287
REMARK  118  A    between atoms: _287  and  _288
REMARK  119  A    between atoms: _287  and  _290
REMARK  120  A    between atoms: _290  and  _291
REMARK  121  A    between atoms: _296  and  _298
REMARK  122  A    between atoms: _298  and  _299
REMARK  123  A    between atoms: _298  and  _301
REMARK  124  A    between atoms: _301  and  _302
REMARK  125  A    between atoms: _308  and  _310
REMARK  126  A    between atoms: _310  and  _311
REMARK  127  A    between atoms: _310  and  _313
REMARK  128  A    between atoms: _313  and  _314
REMARK  129  A    between atoms: _317  and  _319
REMARK  130  A    between atoms: _319  and  _320
REMARK  131  A    between atoms: _323  and  _325
REMARK  132  A    between atoms: _325  and  _326
REMARK  133  A    between atoms: _325  and  _328
REMARK  134  A    between atoms: _328  and  _329
REMARK  135  A    between atoms: _331  and  _333
REMARK  136  A    between atoms: _333  and  _334
REMARK  137  A    between atoms: _333  and  _336
REMARK                            x       y       z     vdW  Elec       q    Type
REMARK                         _______ _______ _______ _____ _____    ______ ____
ROOT
ATOM      1  CG  LYS A   1      26.516 -10.902  12.191  0.00  0.00    -0.000 C 
ENDROOT
BRANCH   1   2
ATOM      2  CB  LYS A   1      26.084  -9.733  13.072  0.00  0.00    +0.025 C 
BRANCH   2   3
ATOM      3  CA  LYS A   1      24.569  -9.490  13.113  0.00  0.00    +0.133 C 
BRANCH   3   4
ATOM      4  N   LYS A   1      24.066  -9.303  11.759  0.00  0.00    -0.239 NA
ATOM      5  H   LYS A   1      24.136  -8.365  11.315  0.00  0.00    +0.142 HD
ENDBRANCH   3   4
BRANCH   3   6
ATOM      6  C   LYS A   1      24.294  -8.291  14.009  0.00  0.00    +0.224 C 
ATOM      7  O   LYS A   1      23.850  -7.239  13.553  0.00  0.00    -0.287 OA
ENDBRANCH   3   6
ENDBRANCH   2   3
ENDBRANCH   1   2
BRANCH   1   8
ATOM      8  CD  LYS A   1      28.032 -11.052  12.139  0.00  0.00    -0.024 C 
BRANCH   8   9
ATOM      9  CE  LYS A   1      28.614 -11.423  13.493  0.00  0.00    -0.086 C 
BRANCH   9  10
ATOM     10  NZ  LYS A   1      30.092 -11.623  13.442  0.00  0.00    +0.380 N 
ATOM     11  HZ1 LYS A   1      30.440 -11.874  14.390  0.00  0.00    -0.089 HD
ATOM     12  HZ2 LYS A   1      30.549 -10.744  13.126  0.00  0.00    -0.089 HD
ATOM     13  HZ3 LYS A   1      30.314 -12.390  12.776  0.00  0.00    -0.089 HD
ENDBRANCH   9  10
ENDBRANCH   8   9
ENDBRANCH   1   8
TORSDOF 7
REMARK  Name = ../refined-set-2016/1w4q/1w4q_pocket.pdb
REMARK  137 active torsions:
REMARK  status: ('A' for Active; 'I' for Inactive)
REMARK    1  A    between atoms: _1  and  _3
REMARK    2  A    between atoms: _3  and  _4
REMARK    3  A    between atoms: _7  and  _9
REMARK    4  A    between atoms: _9  and  _10
REMARK    5  A    between atoms: _9  and  _12
REMARK    6  A    between atoms: _12  and  _13
REMARK    7  A    between atoms: _13  and  _14
REMARK    8  A    between atoms: _14  and  _15
REMARK    9  A    between atoms: _15  and  _16
REMARK   10  A    between atoms: _20  and  _22
REMARK   11  A    between atoms: _22  and  _23
REMARK   12  A    between atoms: _22  and  _25
REMARK   13  A    between atoms: _25  and  _26
REMARK   14  A    between atoms: _32  and  _34
REMARK   15  A    between atoms: _34  and  _35
REMARK   16  A    between atoms: _34  and  _37
REMARK   17  A    between atoms: _37  and  _38
REMARK   18  A    between atoms: _38  and  _39
REMARK   19  A    between atoms: _39  and  _40
REMARK   20  A    between atoms: _49  and  _51
REMARK   21  A    between atoms: _51  and  _52
REMARK   22  A    between atoms: _51  and  _54
REMARK   23  A    between atoms: _54  and  _55
REMARK   24  A    between atoms: _55  and  _56
REMARK   25  A    between atoms: _61  and  _63
REMARK   26  A    between atoms: _63  and  _64
REMARK   27  A    between atoms: _63  and  _66
REMARK   28  A    between atoms: _66  and  _67
REMARK   29  A    between atoms: _72  and  _74
REMARK   30  A    between atoms: _74  and  _75
REMARK   31  A    between atoms: _74  and  _77
REMARK   32  A    between atoms: _77  and  _78
REMARK   33  A    between atoms: _78  and  _79
REMARK   34  A    between atoms: _81  and  _83
REMARK   35  A    between atoms: _83  and  _84
REMARK   36  A    between atoms: _83  and  _86
REMARK   37  A    between atoms: _86  and  _87
REMARK   38  A    between atoms: _90  and  _92
REMARK   39  A    between atoms: _92  and  _93
REMARK   40  A    between atoms: _92  and  _95
REMARK   41  A    between atoms: _95  and  _96
REMARK   42  A    between atoms: _96  and  _97
REMARK   43  A    between atoms: _97  and  _98
REMARK   44  A    between atoms: _107  and  _109
REMARK   45  A    between atoms: _109  and  _110
REMARK   46  A    between atoms: _109  and  _112
REMARK   47  A    between atoms: _112  and  _113
REMARK   48  A    between atoms: _113  and  _114
REMARK   49  A    between atoms: _114  and  _115
REMARK   50  A    between atoms: _115  and  _116
REMARK   51  A    between atoms: _121  and  _122
REMARK   52  A    between atoms: _127  and  _129
REMARK   53  A    between atoms: _129  and  _130
REMARK   54  A    between atoms: _129  and  _132
REMARK   55  A    between atoms: _135  and  _137
REMARK   56  A    between atoms: _137  and  _138
REMARK   57  A    between atoms: _137  and  _140
REMARK   58  A    between atoms: _140  and  _141
REMARK   59  A    between atoms: _146  and  _148
REMARK   60  A    between atoms: _148  and  _149
REMARK   61  A    between atoms: _148  and  _151
REMARK   62  A    between atoms: _151  and  _152
REMARK   63  A    between atoms: _155  and  _157
REMARK   64  A    between atoms: _157  and  _158
REMARK   65  A    between atoms: _157  and  _160
REMARK   66  A    between atoms: _160  and  _161
REMARK   67  A    between atoms: _167  and  _169
REMARK   68  A    between atoms: _169  and  _170
REMARK   69  A    between atoms: _169  and  _172
REMARK   70  A    between atoms: _172  and  _173
REMARK   71  A    between atoms: _173  and  _174
REMARK   72  A    between atoms: _174  and  _175
REMARK   73  A    between atoms: _175  and  _176
REMARK   74  A    between atoms: _180  and  _182
REMARK   75  A    between atoms: _182  and  _183
REMARK   76  A    between atoms: _182  and  _185
REMARK   77  A    between atoms: _185  and  _186
REMARK   78  A    between atoms: _191  and  _193
REMARK   79  A    between atoms: _193  and  _194
REMARK   80  A    between atoms: _193  and  _196
REMARK   81  A    between atoms: _196  and  _197
REMARK   82  A    between atoms: _200  and  _202
REMARK   83  A    between atoms: _202  and  _203
REMARK   84  A    between atoms: _202  and  _205
REMARK   85  A    between atoms: _205  and  _206
REMARK   86  A    between atoms: _209  and  _211
REMARK   87  A    between atoms: _211  and  _212
REMARK   88  A    between atoms: _211  and  _214
REMARK   89  A    between atoms: _214  and  _215
REMARK   90  A    between atoms: _218  and  _220
REMARK   91  A    between atoms: _220  and  _221
REMARK   92  A    between atoms: _220  and  _223
REMARK   93  A    between atoms: _225  and  _227
REMARK   94  A    between atoms: _227  and  _228
REMARK   95  A    between atoms: _227  and  _230
REMARK   96  A    between atoms: _230  and  _231
REMARK   97  A    between atoms: _231  and  _232
REMARK   98  A    between atoms: _232  and  _233
REMARK   99  A    between atoms: _233  and  _234
REMARK  100  A    between atoms: _238  and  _240
REMARK  101  A    between atoms: _240  and  _241
REMARK  102  A    between atoms: _240  and  _243
REMARK  103  A    between atoms: _243  and  _244
REMARK  104  A    between atoms: _247  and  _249
REMARK  105  A    between atoms: _249  and  _250
REMARK  106  A    between atoms: _249  and  _252
REMARK  107  A    between atoms: _252  and  _253
REMARK  108  A    between atoms: _256  and  _258
REMARK  109  A    between atoms: _258  and  _259
REMARK  110  A    between atoms: _258  and  _261
REMARK  111  A    between atoms: _264  and  _266
REMARK  112  A    between atoms: _266  and  _267
REMARK  113  A    between atoms: _271  and  _272
REMARK  114  A    between atoms: _277  and  _279
REMARK  115  A    between atoms: _279  and  _280
REMARK  116  A    between atoms: _279  and  _282
REMARK  117  A    between atoms: _285  and  _287
REMARK  118  A    between atoms: _287  and  _288
REMARK  119  A    between atoms: _287  and  _290
REMARK  120  A    between atoms: _290  and  _291
REMARK  121  A    between atoms: _296  and  _298
REMARK  122  A    between atoms: _298  and  _299
REMARK  123  A    between atoms: _298  and  _301
REMARK  124  A    between atoms: _301  and  _302
REMARK  125  A    between atoms: _308  and  _310
REMARK  126  A    between atoms: _310  and  _311
REMARK  127  A    between atoms: _310  and  _313
REMARK  128  A    between atoms: _313  and  _314
REMARK  129  A    between atoms: _317  and  _319
REMARK  130  A    between atoms: _319  and  _320
REMARK  131  A    between atoms: _323  and  _325
REMARK  132  A    between atoms: _325  and  _326
REMARK  133  A    between atoms: _325  and  _328
REMARK  134  A    between atoms: _328  and  _329
REMARK  135  A    between atoms: _331  and  _333
REMARK  136  A    between atoms: _333  and  _334
REMARK  137  A    between atoms: _333  and  _336
REMARK                            x       y       z     vdW  Elec       q    Type
REMARK                         _______ _______ _______ _____ _____    ______ ____
ROOT
ATOM      1  CA  ILE A   2      28.931  -3.055  18.740  0.00  0.00    +0.148 C 
ENDROOT
BRANCH   1   4
ATOM      2  C   ILE A   1      27.119  -3.892  17.344  0.00  0.00    +0.238 C 
ATOM      3  O   ILE A   1      26.284  -3.748  18.237  0.00  0.00    -0.274 OA
ATOM      4  N   ILE A   2      28.408  -3.616  17.502  0.00  0.00    -0.297 N 
ATOM      5  H   ILE A   2      29.064  -3.806  16.718  0.00  0.00    +0.150 HD
BRANCH   2   6
ATOM      6  CA  ILE A   1      26.722  -4.429  15.979  0.00  0.00    +0.145 C 
BRANCH   6   7
ATOM      7  N   ILE A   1      25.534  -5.262  16.065  0.00  0.00    -0.238 NA
ATOM      8  H   ILE A   1      24.588  -4.830  16.036  0.00  0.00    +0.142 HD
ENDBRANCH   6   7
BRANCH   6   9
ATOM      9  CB  ILE A   1      26.516  -3.228  15.022  0.00  0.00    +0.025 C 
ATOM     10  CG2 ILE A   1      26.155  -3.732  13.628  0.00  0.00    +0.002 C 
BRANCH   9  11
ATOM     11  CG1 ILE A   1      25.425  -2.300  15.565  0.00  0.00    +0.002 C 
ATOM     12  CD1 ILE A   1      25.296  -1.002  14.804  0.00  0.00    +0.000 C 
ENDBRANCH   9  11
ENDBRANCH   6   9
ENDBRANCH   2   6
ENDBRANCH   1   4
BRANCH   1  13
ATOM     13  C   ILE A   2      29.665  -1.775  18.367  0.00  0.00    +0.241 C 
ATOM     14  N   VAL A   3      29.185  -0.650  18.884  0.00  0.00    -0.297 N 
ATOM     15  H   VAL A   3      28.351  -0.688  19.504  0.00  0.00    +0.150 HD
ATOM     16  O   ILE A   2      30.637  -1.805  17.606  0.00  0.00    -0.273 OA
BRANCH  14  17
ATOM     17  CA  VAL A   3      29.806   0.637  18.599  0.00  0.00    +0.149 C 
BRANCH  17  18
ATOM     18  C   VAL A   3      30.119   1.374  19.897  0.00  0.00    +0.241 C 
ATOM     19  O   VAL A   3      29.532   1.087  20.938  0.00  0.00    -0.273 OA
ATOM     20  N   ALA A   4      31.065   2.304  19.830  0.00  0.00    -0.298 N 
ATOM     21  H   ALA A   4      31.561   2.454  18.928  0.00  0.00    +0.150 HD
BRANCH  20  22
ATOM     22  CA  ALA A   4      31.431   3.122  20.983  0.00  0.00    +0.137 C 
ATOM     23  CB  ALA A   4      32.946   3.340  21.020  0.00  0.00    +0.030 C 
BRANCH  22  24
ATOM     24  C   ALA A   4      30.712   4.451  20.770  0.00  0.00    +0.227 C 
ATOM     25  O   ALA A   4      30.647   4.942  19.644  0.00  0.00    -0.286 OA
ENDBRANCH  22  24
ENDBRANCH  20  22
ENDBRANCH  17  18
BRANCH  17  26
ATOM     26  CB  VAL A   3      28.880   1.543  17.741  0.00  0.00    +0.027 C 
ATOM     27  CG2 VAL A   3      27.585   1.863  18.502  0.00  0.00    +0.002 C 
ATOM     28  CG1 VAL A   3      28.558   0.858  16.420  0.00  0.00    +0.002 C 
ENDBRANCH  17  26
ENDBRANCH  14  17
ENDBRANCH   1  13
BRANCH   1  29
ATOM     29  CB  ILE A   2      29.906  -4.028  19.440  0.00  0.00    +0.027 C 
ATOM     30  CG2 ILE A   2      30.497  -3.372  20.688  0.00  0.00    +0.002 C 
BRANCH  29  31
ATOM     31  CG1 ILE A   2      29.160  -5.308  19.826  0.00  0.00    +0.002 C 
ATOM     32  CD1 ILE A   2      30.036  -6.361  20.474  0.00  0.00    +0.000 C 
ENDBRANCH  29  31
ENDBRANCH   1  29
TORSDOF 13
REMARK  Name = ../refined-set-2016/1w4q/1w4q_pocket.pdb
REMARK  137 active torsions:
REMARK  status: ('A' for Active; 'I' for Inactive)
REMARK    1  A    between atoms: _1  and  _3
REMARK    2  A    between atoms: _3  and  _4
REMARK    3  A    between atoms: _7  and  _9
REMARK    4  A    between atoms: _9  and  _10
REMARK    5  A    between atoms: _9  and  _12
REMARK    6  A    between atoms: _12  and  _13
REMARK    7  A    between atoms: _13  and  _14
REMARK    8  A    between atoms: _14  and  _15
REMARK    9  A    between atoms: _15  and  _16
REMARK   10  A    between atoms: _20  and  _22
REMARK   11  A    between atoms: _22  and  _23
REMARK   12  A    between atoms: _22  and  _25
REMARK   13  A    between atoms: _25  and  _26
REMARK   14  A    between atoms: _32  and  _34
REMARK   15  A    between atoms: _34  and  _35
REMARK   16  A    between atoms: _34  and  _37
REMARK   17  A    between atoms: _37  and  _38
REMARK   18  A    between atoms: _38  and  _39
REMARK   19  A    between atoms: _39  and  _40
REMARK   20  A    between atoms: _49  and  _51
REMARK   21  A    between atoms: _51  and  _52
REMARK   22  A    between atoms: _51  and  _54
REMARK   23  A    between atoms: _54  and  _55
REMARK   24  A    between atoms: _55  and  _56
REMARK   25  A    between atoms: _61  and  _63
REMARK   26  A    between atoms: _63  and  _64
REMARK   27  A    between atoms: _63  and  _66
REMARK   28  A    between atoms: _66  and  _67
REMARK   29  A    between atoms: _72  and  _74
REMARK   30  A    between atoms: _74  and  _75
REMARK   31  A    between atoms: _74  and  _77
REMARK   32  A    between atoms: _77  and  _78
REMARK   33  A    between atoms: _78  and  _79
REMARK   34  A    between atoms: _81  and  _83
REMARK   35  A    between atoms: _83  and  _84
REMARK   36  A    between atoms: _83  and  _86
REMARK   37  A    between atoms: _86  and  _87
REMARK   38  A    between atoms: _90  and  _92
REMARK   39  A    between atoms: _92  and  _93
REMARK   40  A    between atoms: _92  and  _95
REMARK   41  A    between atoms: _95  and  _96
REMARK   42  A    between atoms: _96  and  _97
REMARK   43  A    between atoms: _97  and  _98
REMARK   44  A    between atoms: _107  and  _109
REMARK   45  A    between atoms: _109  and  _110
REMARK   46  A    between atoms: _109  and  _112
REMARK   47  A    between atoms: _112  and  _113
REMARK   48  A    between atoms: _113  and  _114
REMARK   49  A    between atoms: _114  and  _115
REMARK   50  A    between atoms: _115  and  _116
REMARK   51  A    between atoms: _121  and  _122
REMARK   52  A    between atoms: _127  and  _129
REMARK   53  A    between atoms: _129  and  _130
REMARK   54  A    between atoms: _129  and  _132
REMARK   55  A    between atoms: _135  and  _137
REMARK   56  A    between atoms: _137  and  _138
REMARK   57  A    between atoms: _137  and  _140
REMARK   58  A    between atoms: _140  and  _141
REMARK   59  A    between atoms: _146  and  _148
REMARK   60  A    between atoms: _148  and  _149
REMARK   61  A    between atoms: _148  and  _151
REMARK   62  A    between atoms: _151  and  _152
REMARK   63  A    between atoms: _155  and  _157
REMARK   64  A    between atoms: _157  and  _158
REMARK   65  A    between atoms: _157  and  _160
REMARK   66  A    between atoms: _160  and  _161
REMARK   67  A    between atoms: _167  and  _169
REMARK   68  A    between atoms: _169  and  _170
REMARK   69  A    between atoms: _169  and  _172
REMARK   70  A    between atoms: _172  and  _173
REMARK   71  A    between atoms: _173  and  _174
REMARK   72  A    between atoms: _174  and  _175
REMARK   73  A    between atoms: _175  and  _176
REMARK   74  A    between atoms: _180  and  _182
REMARK   75  A    between atoms: _182  and  _183
REMARK   76  A    between atoms: _182  and  _185
REMARK   77  A    between atoms: _185  and  _186
REMARK   78  A    between atoms: _191  and  _193
REMARK   79  A    between atoms: _193  and  _194
REMARK   80  A    between atoms: _193  and  _196
REMARK   81  A    between atoms: _196  and  _197
REMARK   82  A    between atoms: _200  and  _202
REMARK   83  A    between atoms: _202  and  _203
REMARK   84  A    between atoms: _202  and  _205
REMARK   85  A    between atoms: _205  and  _206
REMARK   86  A    between atoms: _209  and  _211
REMARK   87  A    between atoms: _211  and  _212
REMARK   88  A    between atoms: _211  and  _214
REMARK   89  A    between atoms: _214  and  _215
REMARK   90  A    between atoms: _218  and  _220
REMARK   91  A    between atoms: _220  and  _221
REMARK   92  A    between atoms: _220  and  _223
REMARK   93  A    between atoms: _225  and  _227
REMARK   94  A    between atoms: _227  and  _228
REMARK   95  A    between atoms: _227  and  _230
REMARK   96  A    between atoms: _230  and  _231
REMARK   97  A    between atoms: _231  and  _232
REMARK   98  A    between atoms: _232  and  _233
REMARK   99  A    between atoms: _233  and  _234
REMARK  100  A    between atoms: _238  and  _240
REMARK  101  A    between atoms: _240  and  _241
REMARK  102  A    between atoms: _240  and  _243
REMARK  103  A    between atoms: _243  and  _244
REMARK  104  A    between atoms: _247  and  _249
REMARK  105  A    between atoms: _249  and  _250
REMARK  106  A    between atoms: _249  and  _252
REMARK  107  A    between atoms: _252  and  _253
REMARK  108  A    between atoms: _256  and  _258
REMARK  109  A    between atoms: _258  and  _259
REMARK  110  A    between atoms: _258  and  _261
REMARK  111  A    between atoms: _264  and  _266
REMARK  112  A    between atoms: _266  and  _267
REMARK  113  A    between atoms: _271  and  _272
REMARK  114  A    between atoms: _277  and  _279
REMARK  115  A    between atoms: _279  and  _280
REMARK  116  A    between atoms: _279  and  _282
REMARK  117  A    between atoms: _285  and  _287
REMARK  118  A    between atoms: _287  and  _288
REMARK  119  A    between atoms: _287  and  _290
REMARK  120  A    between atoms: _290  and  _291
REMARK  121  A    between atoms: _296  and  _298
REMARK  122  A    between atoms: _298  and  _299
REMARK  123  A    between atoms: _298  and  _301
REMARK  124  A    between atoms: _301  and  _302
REMARK  125  A    between atoms: _308  and  _310
REMARK  126  A    between atoms: _310  and  _311
REMARK  127  A    between atoms: _310  and  _313
REMARK  128  A    between atoms: _313  and  _314
REMARK  129  A    between atoms: _317  and  _319
REMARK  130  A    between atoms: _319  and  _320
REMARK  131  A    between atoms: _323  and  _325
REMARK  132  A    between atoms: _325  and  _326
REMARK  133  A    between atoms: _325  and  _328
REMARK  134  A    between atoms: _328  and  _329
REMARK  135  A    between atoms: _331  and  _333
REMARK  136  A    between atoms: _333  and  _334
REMARK  137  A    between atoms: _333  and  _336
REMARK                            x       y       z     vdW  Elec       q    Type
REMARK                         _______ _______ _______ _____ _____    ______ ____
ROOT
ATOM      1  CA  PHE A   4      32.649   0.606  15.123  0.00  0.00    +0.153 C 
ENDROOT
BRANCH   1   2
ATOM      2  C   PHE A   4      33.633  -0.396  15.720  0.00  0.00    +0.241 C 
ATOM      3  N   ASP A   5      33.219  -1.076  16.782  0.00  0.00    -0.297 N 
ATOM      4  H   ASP A   5      32.244  -0.945  17.120  0.00  0.00    +0.150 HD
ATOM      5  O   PHE A   4      34.747  -0.551  15.219  0.00  0.00    -0.273 OA
BRANCH   3   6
ATOM      6  CA  ASP A   5      34.100  -2.004  17.487  0.00  0.00    +0.160 C 
BRANCH   6   7
ATOM      7  C   ASP A   5      34.076  -3.447  17.011  0.00  0.00    +0.241 C 
ATOM      8  O   ASP A   5      35.124  -4.095  16.939  0.00  0.00    -0.273 OA
ATOM      9  N   ALA A   6      32.889  -3.955  16.701  0.00  0.00    -0.297 N 
ATOM     10  H   ALA A   6      32.041  -3.358  16.777  0.00  0.00    +0.150 HD
BRANCH   9  11
ATOM     11  CA  ALA A   6      32.757  -5.337  16.255  0.00  0.00    +0.149 C 
ATOM     12  CB  ALA A   6      33.289  -6.274  17.333  0.00  0.00    +0.031 C 
BRANCH  11  13
ATOM     13  C   ALA A   6      31.308  -5.683  15.966  0.00  0.00    +0.241 C 
ATOM     14  O   ALA A   6      30.414  -4.864  16.148  0.00  0.00    -0.273 OA
ATOM     15  N   SER A   7      31.090  -6.910  15.508  0.00  0.00    -0.295 N 
ATOM     16  H   SER A   7      31.902  -7.536  15.335  0.00  0.00    +0.150 HD
BRANCH  15  17
ATOM     17  CA  SER A   7      29.747  -7.405  15.241  0.00  0.00    +0.178 C 
BRANCH  17  18
ATOM     18  C   SER A   7      29.741  -8.831  15.776  0.00  0.00    +0.243 C 
ATOM     19  N   VAL A   8      28.611  -9.268  16.321  0.00  0.00    -0.295 N 
ATOM     20  H   VAL A   8      27.780  -8.643  16.354  0.00  0.00    +0.150 HD
ATOM     21  O   SER A   7      30.755  -9.521  15.703  0.00  0.00    -0.273 OA
BRANCH  19  22
ATOM     22  CA  VAL A   8      28.524 -10.615  16.873  0.00  0.00    +0.176 C 
BRANCH  22  23
ATOM     23  C   VAL A   8      27.193 -11.291  16.570  0.00  0.00    +0.382 C 
ATOM     24  OXT VAL A   8      27.123 -12.526  16.728  0.00  0.00    -0.244 OA
ATOM     25  O   VAL A   8      26.237 -10.582  16.196  0.00  0.00    -0.244 OA
ENDBRANCH  22  23
BRANCH  22  26
ATOM     26  CB  VAL A   8      28.731 -10.603  18.409  0.00  0.00    +0.029 C 
ATOM     27  CG2 VAL A   8      27.736  -9.659  19.062  0.00  0.00    +0.002 C 
ATOM     28  CG1 VAL A   8      30.153 -10.184  18.739  0.00  0.00    +0.002 C 
ENDBRANCH  22  26
ENDBRANCH  19  22
ENDBRANCH  17  18
BRANCH  17  29
ATOM     29  CB  SER A   7      29.441  -7.401  13.741  0.00  0.00    +0.166 C 
BRANCH  29  30
ATOM     30  OG  SER A   7      30.255  -8.321  13.047  0.00  0.00    -0.380 OA
ATOM     31  H   SER A   7      30.033  -8.294  12.083  0.00  0.00    +0.211 HD
ENDBRANCH  29  30
ENDBRANCH  17  29
ENDBRANCH  15  17
ENDBRANCH  11  13
ENDBRANCH   9  11
ENDBRANCH   6   7
BRANCH   6  32
ATOM     32  CB  ASP A   5      33.776  -1.951  18.983  0.00  0.00    +0.143 C 
BRANCH  32  33
ATOM     33  CG  ASP A   5      34.956  -2.329  19.852  0.00  0.00    +0.367 C 
ATOM     34  OD2 ASP A   5      34.771  -3.133  20.788  0.00  0.00    -0.246 OA
ATOM     35  OD1 ASP A   5      36.069  -1.808  19.609  0.00  0.00    -0.246 OA
ENDBRANCH  32  33
ENDBRANCH   6  32
ENDBRANCH   3   6
ENDBRANCH   1   2
BRANCH   1  38
ATOM     36  C   HIS A   3      32.916   2.714  16.325  0.00  0.00    +0.241 C 
ATOM     37  O   HIS A   3      31.973   2.470  17.076  0.00  0.00    -0.273 OA
ATOM     38  N   PHE A   4      33.293   1.901  15.339  0.00  0.00    -0.297 N 
ATOM     39  H   PHE A   4      34.065   2.195  14.707  0.00  0.00    +0.150 HD
BRANCH  36  40
ATOM     40  CA  HIS A   3      33.697   4.012  16.481  0.00  0.00    +0.155 C 
BRANCH  40  42
ATOM     41  C   VAL A   2      33.133   6.374  16.654  0.00  0.00    +0.241 C 
ATOM     42  N   HIS A   3      32.774   5.099  16.779  0.00  0.00    -0.297 N 
ATOM     43  H   HIS A   3      31.810   4.873  17.097  0.00  0.00    +0.150 HD
ATOM     44  O   VAL A   2      34.247   6.716  16.255  0.00  0.00    -0.273 OA
BRANCH  41  45
ATOM     45  CA  VAL A   2      32.082   7.419  17.018  0.00  0.00    +0.148 C 
BRANCH  45  47
ATOM     46  C   PRO A   1      29.658   7.224  17.019  0.00  0.00    +0.239 C 
ATOM     47  N   VAL A   2      30.838   6.810  17.477  0.00  0.00    -0.297 N 
ATOM     48  H   VAL A   2      30.873   6.039  18.174  0.00  0.00    +0.150 HD
ATOM     49  O   PRO A   1      29.544   8.139  16.197  0.00  0.00    -0.274 OA
BRANCH  46  51
ATOM     50  N   PRO A   1      27.322   7.413  17.896  0.00  0.00    -0.210 NA
ATOM     51  CA  PRO A   1      28.423   6.503  17.557  0.00  0.00    +0.149 C 
ATOM     52  CB  PRO A   1      27.803   5.588  16.500  0.00  0.00    +0.028 C 
ATOM     53  CG  PRO A   1      26.345   5.597  16.849  0.00  0.00    +0.021 C 
ATOM     54  CD  PRO A   1      26.107   7.050  17.146  0.00  0.00    +0.089 C 
ENDBRANCH  46  51
ENDBRANCH  45  47
BRANCH  45  55
ATOM     55  CB  VAL A   2      32.686   8.371  18.089  0.00  0.00    +0.027 C 
ATOM     56  CG2 VAL A   2      32.991   7.599  19.368  0.00  0.00    +0.002 C 
ATOM     57  CG1 VAL A   2      31.725   9.519  18.377  0.00  0.00    +0.002 C 
ENDBRANCH  45  55
ENDBRANCH  41  45
ENDBRANCH  40  42
BRANCH  40  58
ATOM     58  CB  HIS A   3      34.707   3.889  17.635  0.00  0.00    +0.076 C 
BRANCH  58  59
ATOM     59  CG  HIS A   3      35.368   2.548  17.746  0.00  0.00    +0.082 A 
ATOM     60  CD2 HIS A   3      35.182   1.536  18.627  0.00  0.00    +0.115 A 
ATOM     61  NE2 HIS A   3      36.087   0.550  18.312  0.00  0.00    -0.221 NA
ATOM     62  CE1 HIS A   3      36.799   0.941  17.270  0.00  0.00    +0.199 A 
ATOM     63  ND1 HIS A   3      36.383   2.142  16.908  0.00  0.00    -0.227 NA
ENDBRANCH  58  59
ENDBRANCH  40  58
ENDBRANCH  36  40
ENDBRANCH   1  38
BRANCH   1  64
ATOM     64  CB  PHE A   4      32.459   0.325  13.630  0.00  0.00    +0.055 C 
BRANCH  64  65
ATOM     65  CG  PHE A   4      31.552  -0.846  13.352  0.00  0.00    -0.020 A 
ATOM     66  CD2 PHE A   4      32.037  -2.147  13.430  0.00  0.00    -0.004 A 
ATOM     67  CE2 PHE A   4      31.197  -3.242  13.220  0.00  0.00    -0.000 A 
ATOM     68  CZ  PHE A   4      29.853  -3.036  12.930  0.00  0.00    -0.000 A 
ATOM     69  CE1 PHE A   4      29.352  -1.735  12.848  0.00  0.00    -0.000 A 
ATOM     70  CD1 PHE A   4      30.204  -0.647  13.059  0.00  0.00    -0.004 A 
ENDBRANCH  64  65
ENDBRANCH   1  64
TORSDOF 25
REMARK  Name = ../refined-set-2016/1w4q/1w4q_pocket.pdb
REMARK  137 active torsions:
REMARK  status: ('A' for Active; 'I' for Inactive)
REMARK    1  A    between atoms: _1  and  _3
REMARK    2  A    between atoms: _3  and  _4
REMARK    3  A    between atoms: _7  and  _9
REMARK    4  A    between atoms: _9  and  _10
REMARK    5  A    between atoms: _9  and  _12
REMARK    6  A    between atoms: _12  and  _13
REMARK    7  A    between atoms: _13  and  _14
REMARK    8  A    between atoms: _14  and  _15
REMARK    9  A    between atoms: _15  and  _16
REMARK   10  A    between atoms: _20  and  _22
REMARK   11  A    between atoms: _22  and  _23
REMARK   12  A    between atoms: _22  and  _25
REMARK   13  A    between atoms: _25  and  _26
REMARK   14  A    between atoms: _32  and  _34
REMARK   15  A    between atoms: _34  and  _35
REMARK   16  A    between atoms: _34  and  _37
REMARK   17  A    between atoms: _37  and  _38
REMARK   18  A    between atoms: _38  and  _39
REMARK   19  A    between atoms: _39  and  _40
REMARK   20  A    between atoms: _49  and  _51
REMARK   21  A    between atoms: _51  and  _52
REMARK   22  A    between atoms: _51  and  _54
REMARK   23  A    between atoms: _54  and  _55
REMARK   24  A    between atoms: _55  and  _56
REMARK   25  A    between atoms: _61  and  _63
REMARK   26  A    between atoms: _63  and  _64
REMARK   27  A    between atoms: _63  and  _66
REMARK   28  A    between atoms: _66  and  _67
REMARK   29  A    between atoms: _72  and  _74
REMARK   30  A    between atoms: _74  and  _75
REMARK   31  A    between atoms: _74  and  _77
REMARK   32  A    between atoms: _77  and  _78
REMARK   33  A    between atoms: _78  and  _79
REMARK   34  A    between atoms: _81  and  _83
REMARK   35  A    between atoms: _83  and  _84
REMARK   36  A    between atoms: _83  and  _86
REMARK   37  A    between atoms: _86  and  _87
REMARK   38  A    between atoms: _90  and  _92
REMARK   39  A    between atoms: _92  and  _93
REMARK   40  A    between atoms: _92  and  _95
REMARK   41  A    between atoms: _95  and  _96
REMARK   42  A    between atoms: _96  and  _97
REMARK   43  A    between atoms: _97  and  _98
REMARK   44  A    between atoms: _107  and  _109
REMARK   45  A    between atoms: _109  and  _110
REMARK   46  A    between atoms: _109  and  _112
REMARK   47  A    between atoms: _112  and  _113
REMARK   48  A    between atoms: _113  and  _114
REMARK   49  A    between atoms: _114  and  _115
REMARK   50  A    between atoms: _115  and  _116
REMARK   51  A    between atoms: _121  and  _122
REMARK   52  A    between atoms: _127  and  _129
REMARK   53  A    between atoms: _129  and  _130
REMARK   54  A    between atoms: _129  and  _132
REMARK   55  A    between atoms: _135  and  _137
REMARK   56  A    between atoms: _137  and  _138
REMARK   57  A    between atoms: _137  and  _140
REMARK   58  A    between atoms: _140  and  _141
REMARK   59  A    between atoms: _146  and  _148
REMARK   60  A    between atoms: _148  and  _149
REMARK   61  A    between atoms: _148  and  _151
REMARK   62  A    between atoms: _151  and  _152
REMARK   63  A    between atoms: _155  and  _157
REMARK   64  A    between atoms: _157  and  _158
REMARK   65  A    between atoms: _157  and  _160
REMARK   66  A    between atoms: _160  and  _161
REMARK   67  A    between atoms: _167  and  _169
REMARK   68  A    between atoms: _169  and  _170
REMARK   69  A    between atoms: _169  and  _172
REMARK   70  A    between atoms: _172  and  _173
REMARK   71  A    between atoms: _173  and  _174
REMARK   72  A    between atoms: _174  and  _175
REMARK   73  A    between atoms: _175  and  _176
REMARK   74  A    between atoms: _180  and  _182
REMARK   75  A    between atoms: _182  and  _183
REMARK   76  A    between atoms: _182  and  _185
REMARK   77  A    between atoms: _185  and  _186
REMARK   78  A    between atoms: _191  and  _193
REMARK   79  A    between atoms: _193  and  _194
REMARK   80  A    between atoms: _193  and  _196
REMARK   81  A    between atoms: _196  and  _197
REMARK   82  A    between atoms: _200  and  _202
REMARK   83  A    between atoms: _202  and  _203
REMARK   84  A    between atoms: _202  and  _205
REMARK   85  A    between atoms: _205  and  _206
REMARK   86  A    between atoms: _209  and  _211
REMARK   87  A    between atoms: _211  and  _212
REMARK   88  A    between atoms: _211  and  _214
REMARK   89  A    between atoms: _214  and  _215
REMARK   90  A    between atoms: _218  and  _220
REMARK   91  A    between atoms: _220  and  _221
REMARK   92  A    between atoms: _220  and  _223
REMARK   93  A    between atoms: _225  and  _227
REMARK   94  A    between atoms: _227  and  _228
REMARK   95  A    between atoms: _227  and  _230
REMARK   96  A    between atoms: _230  and  _231
REMARK   97  A    between atoms: _231  and  _232
REMARK   98  A    between atoms: _232  and  _233
REMARK   99  A    between atoms: _233  and  _234
REMARK  100  A    between atoms: _238  and  _240
REMARK  101  A    between atoms: _240  and  _241
REMARK  102  A    between atoms: _240  and  _243
REMARK  103  A    between atoms: _243  and  _244
REMARK  104  A    between atoms: _247  and  _249
REMARK  105  A    between atoms: _249  and  _250
REMARK  106  A    between atoms: _249  and  _252
REMARK  107  A    between atoms: _252  and  _253
REMARK  108  A    between atoms: _256  and  _258
REMARK  109  A    between atoms: _258  and  _259
REMARK  110  A    between atoms: _258  and  _261
REMARK  111  A    between atoms: _264  and  _266
REMARK  112  A    between atoms: _266  and  _267
REMARK  113  A    between atoms: _271  and  _272
REMARK  114  A    between atoms: _277  and  _279
REMARK  115  A    between atoms: _279  and  _280
REMARK  116  A    between atoms: _279  and  _282
REMARK  117  A    between atoms: _285  and  _287
REMARK  118  A    between atoms: _287  and  _288
REMARK  119  A    between atoms: _287  and  _290
REMARK  120  A    between atoms: _290  and  _291
REMARK  121  A    between atoms: _296  and  _298
REMARK  122  A    between atoms: _298  and  _299
REMARK  123  A    between atoms: _298  and  _301
REMARK  124  A    between atoms: _301  and  _302
REMARK  125  A    between atoms: _308  and  _310
REMARK  126  A    between atoms: _310  and  _311
REMARK  127  A    between atoms: _310  and  _313
REMARK  128  A    between atoms: _313  and  _314
REMARK  129  A    between atoms: _317  and  _319
REMARK  130  A    between atoms: _319  and  _320
REMARK  131  A    between atoms: _323  and  _325
REMARK  132  A    between atoms: _325  and  _326
REMARK  133  A    between atoms: _325  and  _328
REMARK  134  A    between atoms: _328  and  _329
REMARK  135  A    between atoms: _331  and  _333
REMARK  136  A    between atoms: _333  and  _334
REMARK  137  A    between atoms: _333  and  _336
REMARK                            x       y       z     vdW  Elec       q    Type
REMARK                         _______ _______ _______ _____ _____    ______ ____
ROOT
ATOM      1  O   HOH     1      41.399   6.374   9.824  0.00  0.00    +0.000 OA
ENDROOT
TORSDOF 0
REMARK  Name = ../refined-set-2016/1w4q/1w4q_pocket.pdb
REMARK  137 active torsions:
REMARK  status: ('A' for Active; 'I' for Inactive)
REMARK    1  A    between atoms: _1  and  _3
REMARK    2  A    between atoms: _3  and  _4
REMARK    3  A    between atoms: _7  and  _9
REMARK    4  A    between atoms: _9  and  _10
REMARK    5  A    between atoms: _9  and  _12
REMARK    6  A    between atoms: _12  and  _13
REMARK    7  A    between atoms: _13  and  _14
REMARK    8  A    between atoms: _14  and  _15
REMARK    9  A    between atoms: _15  and  _16
REMARK   10  A    between atoms: _20  and  _22
REMARK   11  A    between atoms: _22  and  _23
REMARK   12  A    between atoms: _22  and  _25
REMARK   13  A    between atoms: _25  and  _26
REMARK   14  A    between atoms: _32  and  _34
REMARK   15  A    between atoms: _34  and  _35
REMARK   16  A    between atoms: _34  and  _37
REMARK   17  A    between atoms: _37  and  _38
REMARK   18  A    between atoms: _38  and  _39
REMARK   19  A    between atoms: _39  and  _40
REMARK   20  A    between atoms: _49  and  _51
REMARK   21  A    between atoms: _51  and  _52
REMARK   22  A    between atoms: _51  and  _54
REMARK   23  A    between atoms: _54  and  _55
REMARK   24  A    between atoms: _55  and  _56
REMARK   25  A    between atoms: _61  and  _63
REMARK   26  A    between atoms: _63  and  _64
REMARK   27  A    between atoms: _63  and  _66
REMARK   28  A    between atoms: _66  and  _67
REMARK   29  A    between atoms: _72  and  _74
REMARK   30  A    between atoms: _74  and  _75
REMARK   31  A    between atoms: _74  and  _77
REMARK   32  A    between atoms: _77  and  _78
REMARK   33  A    between atoms: _78  and  _79
REMARK   34  A    between atoms: _81  and  _83
REMARK   35  A    between atoms: _83  and  _84
REMARK   36  A    between atoms: _83  and  _86
REMARK   37  A    between atoms: _86  and  _87
REMARK   38  A    between atoms: _90  and  _92
REMARK   39  A    between atoms: _92  and  _93
REMARK   40  A    between atoms: _92  and  _95
REMARK   41  A    between atoms: _95  and  _96
REMARK   42  A    between atoms: _96  and  _97
REMARK   43  A    between atoms: _97  and  _98
REMARK   44  A    between atoms: _107  and  _109
REMARK   45  A    between atoms: _109  and  _110
REMARK   46  A    between atoms: _109  and  _112
REMARK   47  A    between atoms: _112  and  _113
REMARK   48  A    between atoms: _113  and  _114
REMARK   49  A    between atoms: _114  and  _115
REMARK   50  A    between atoms: _115  and  _116
REMARK   51  A    between atoms: _121  and  _122
REMARK   52  A    between atoms: _127  and  _129
REMARK   53  A    between atoms: _129  and  _130
REMARK   54  A    between atoms: _129  and  _132
REMARK   55  A    between atoms: _135  and  _137
REMARK   56  A    between atoms: _137  and  _138
REMARK   57  A    between atoms: _137  and  _140
REMARK   58  A    between atoms: _140  and  _141
REMARK   59  A    between atoms: _146  and  _148
REMARK   60  A    between atoms: _148  and  _149
REMARK   61  A    between atoms: _148  and  _151
REMARK   62  A    between atoms: _151  and  _152
REMARK   63  A    between atoms: _155  and  _157
REMARK   64  A    between atoms: _157  and  _158
REMARK   65  A    between atoms: _157  and  _160
REMARK   66  A    between atoms: _160  and  _161
REMARK   67  A    between atoms: _167  and  _169
REMARK   68  A    between atoms: _169  and  _170
REMARK   69  A    between atoms: _169  and  _172
REMARK   70  A    between atoms: _172  and  _173
REMARK   71  A    between atoms: _173  and  _174
REMARK   72  A    between atoms: _174  and  _175
REMARK   73  A    between atoms: _175  and  _176
REMARK   74  A    between atoms: _180  and  _182
REMARK   75  A    between atoms: _182  and  _183
REMARK   76  A    between atoms: _182  and  _185
REMARK   77  A    between atoms: _185  and  _186
REMARK   78  A    between atoms: _191  and  _193
REMARK   79  A    between atoms: _193  and  _194
REMARK   80  A    between atoms: _193  and  _196
REMARK   81  A    between atoms: _196  and  _197
REMARK   82  A    between atoms: _200  and  _202
REMARK   83  A    between atoms: _202  and  _203
REMARK   84  A    between atoms: _202  and  _205
REMARK   85  A    between atoms: _205  and  _206
REMARK   86  A    between atoms: _209  and  _211
REMARK   87  A    between atoms: _211  and  _212
REMARK   88  A    between atoms: _211  and  _214
REMARK   89  A    between atoms: _214  and  _215
REMARK   90  A    between atoms: _218  and  _220
REMARK   91  A    between atoms: _220  and  _221
REMARK   92  A    between atoms: _220  and  _223
REMARK   93  A    between atoms: _225  and  _227
REMARK   94  A    between atoms: _227  and  _228
REMARK   95  A    between atoms: _227  and  _230
REMARK   96  A    between atoms: _230  and  _231
REMARK   97  A    between atoms: _231  and  _232
REMARK   98  A    between atoms: _232  and  _233
REMARK   99  A    between atoms: _233  and  _234
REMARK  100  A    between atoms: _238  and  _240
REMARK  101  A    between atoms: _240  and  _241
REMARK  102  A    between atoms: _240  and  _243
REMARK  103  A    between atoms: _243  and  _244
REMARK  104  A    between atoms: _247  and  _249
REMARK  105  A    between atoms: _249  and  _250
REMARK  106  A    between atoms: _249  and  _252
REMARK  107  A    between atoms: _252  and  _253
REMARK  108  A    between atoms: _256  and  _258
REMARK  109  A    between atoms: _258  and  _259
REMARK  110  A    between atoms: _258  and  _261
REMARK  111  A    between atoms: _264  and  _266
REMARK  112  A    between atoms: _266  and  _267
REMARK  113  A    between atoms: _271  and  _272
REMARK  114  A    between atoms: _277  and  _279
REMARK  115  A    between atoms: _279  and  _280
REMARK  116  A    between atoms: _279  and  _282
REMARK  117  A    between atoms: _285  and  _287
REMARK  118  A    between atoms: _287  and  _288
REMARK  119  A    between atoms: _287  and  _290
REMARK  120  A    between atoms: _290  and  _291
REMARK  121  A    between atoms: _296  and  _298
REMARK  122  A    between atoms: _298  and  _299
REMARK  123  A    between atoms: _298  and  _301
REMARK  124  A    between atoms: _301  and  _302
REMARK  125  A    between atoms: _308  and  _310
REMARK  126  A    between atoms: _310  and  _311
REMARK  127  A    between atoms: _310  and  _313
REMARK  128  A    between atoms: _313  and  _314
REMARK  129  A    between atoms: _317  and  _319
REMARK  130  A    between atoms: _319  and  _320
REMARK  131  A    between atoms: _323  and  _325
REMARK  132  A    between atoms: _325  and  _326
REMARK  133  A    between atoms: _325  and  _328
REMARK  134  A    between atoms: _328  and  _329
REMARK  135  A    between atoms: _331  and  _333
REMARK  136  A    between atoms: _333  and  _334
REMARK  137  A    between atoms: _333  and  _336
REMARK                            x       y       z     vdW  Elec       q    Type
REMARK                         _______ _______ _______ _____ _____    ______ ____
ROOT
ATOM      1  O   HOH     1      39.582   8.360   6.991  0.00  0.00    +0.000 OA
ENDROOT
TORSDOF 0
REMARK  Name = ../refined-set-2016/1w4q/1w4q_pocket.pdb
REMARK  137 active torsions:
REMARK  status: ('A' for Active; 'I' for Inactive)
REMARK    1  A    between atoms: _1  and  _3
REMARK    2  A    between atoms: _3  and  _4
REMARK    3  A    between atoms: _7  and  _9
REMARK    4  A    between atoms: _9  and  _10
REMARK    5  A    between atoms: _9  and  _12
REMARK    6  A    between atoms: _12  and  _13
REMARK    7  A    between atoms: _13  and  _14
REMARK    8  A    between atoms: _14  and  _15
REMARK    9  A    between atoms: _15  and  _16
REMARK   10  A    between atoms: _20  and  _22
REMARK   11  A    between atoms: _22  and  _23
REMARK   12  A    between atoms: _22  and  _25
REMARK   13  A    between atoms: _25  and  _26
REMARK   14  A    between atoms: _32  and  _34
REMARK   15  A    between atoms: _34  and  _35
REMARK   16  A    between atoms: _34  and  _37
REMARK   17  A    between atoms: _37  and  _38
REMARK   18  A    between atoms: _38  and  _39
REMARK   19  A    between atoms: _39  and  _40
REMARK   20  A    between atoms: _49  and  _51
REMARK   21  A    between atoms: _51  and  _52
REMARK   22  A    between atoms: _51  and  _54
REMARK   23  A    between atoms: _54  and  _55
REMARK   24  A    between atoms: _55  and  _56
REMARK   25  A    between atoms: _61  and  _63
REMARK   26  A    between atoms: _63  and  _64
REMARK   27  A    between atoms: _63  and  _66
REMARK   28  A    between atoms: _66  and  _67
REMARK   29  A    between atoms: _72  and  _74
REMARK   30  A    between atoms: _74  and  _75
REMARK   31  A    between atoms: _74  and  _77
REMARK   32  A    between atoms: _77  and  _78
REMARK   33  A    between atoms: _78  and  _79
REMARK   34  A    between atoms: _81  and  _83
REMARK   35  A    between atoms: _83  and  _84
REMARK   36  A    between atoms: _83  and  _86
REMARK   37  A    between atoms: _86  and  _87
REMARK   38  A    between atoms: _90  and  _92
REMARK   39  A    between atoms: _92  and  _93
REMARK   40  A    between atoms: _92  and  _95
REMARK   41  A    between atoms: _95  and  _96
REMARK   42  A    between atoms: _96  and  _97
REMARK   43  A    between atoms: _97  and  _98
REMARK   44  A    between atoms: _107  and  _109
REMARK   45  A    between atoms: _109  and  _110
REMARK   46  A    between atoms: _109  and  _112
REMARK   47  A    between atoms: _112  and  _113
REMARK   48  A    between atoms: _113  and  _114
REMARK   49  A    between atoms: _114  and  _115
REMARK   50  A    between atoms: _115  and  _116
REMARK   51  A    between atoms: _121  and  _122
REMARK   52  A    between atoms: _127  and  _129
REMARK   53  A    between atoms: _129  and  _130
REMARK   54  A    between atoms: _129  and  _132
REMARK   55  A    between atoms: _135  and  _137
REMARK   56  A    between atoms: _137  and  _138
REMARK   57  A    between atoms: _137  and  _140
REMARK   58  A    between atoms: _140  and  _141
REMARK   59  A    between atoms: _146  and  _148
REMARK   60  A    between atoms: _148  and  _149
REMARK   61  A    between atoms: _148  and  _151
REMARK   62  A    between atoms: _151  and  _152
REMARK   63  A    between atoms: _155  and  _157
REMARK   64  A    between atoms: _157  and  _158
REMARK   65  A    between atoms: _157  and  _160
REMARK   66  A    between atoms: _160  and  _161
REMARK   67  A    between atoms: _167  and  _169
REMARK   68  A    between atoms: _169  and  _170
REMARK   69  A    between atoms: _169  and  _172
REMARK   70  A    between atoms: _172  and  _173
REMARK   71  A    between atoms: _173  and  _174
REMARK   72  A    between atoms: _174  and  _175
REMARK   73  A    between atoms: _175  and  _176
REMARK   74  A    between atoms: _180  and  _182
REMARK   75  A    between atoms: _182  and  _183
REMARK   76  A    between atoms: _182  and  _185
REMARK   77  A    between atoms: _185  and  _186
REMARK   78  A    between atoms: _191  and  _193
REMARK   79  A    between atoms: _193  and  _194
REMARK   80  A    between atoms: _193  and  _196
REMARK   81  A    between atoms: _196  and  _197
REMARK   82  A    between atoms: _200  and  _202
REMARK   83  A    between atoms: _202  and  _203
REMARK   84  A    between atoms: _202  and  _205
REMARK   85  A    between atoms: _205  and  _206
REMARK   86  A    between atoms: _209  and  _211
REMARK   87  A    between atoms: _211  and  _212
REMARK   88  A    between atoms: _211  and  _214
REMARK   89  A    between atoms: _214  and  _215
REMARK   90  A    between atoms: _218  and  _220
REMARK   91  A    between atoms: _220  and  _221
REMARK   92  A    between atoms: _220  and  _223
REMARK   93  A    between atoms: _225  and  _227
REMARK   94  A    between atoms: _227  and  _228
REMARK   95  A    between atoms: _227  and  _230
REMARK   96  A    between atoms: _230  and  _231
REMARK   97  A    between atoms: _231  and  _232
REMARK   98  A    between atoms: _232  and  _233
REMARK   99  A    between atoms: _233  and  _234
REMARK  100  A    between atoms: _238  and  _240
REMARK  101  A    between atoms: _240  and  _241
REMARK  102  A    between atoms: _240  and  _243
REMARK  103  A    between atoms: _243  and  _244
REMARK  104  A    between atoms: _247  and  _249
REMARK  105  A    between atoms: _249  and  _250
REMARK  106  A    between atoms: _249  and  _252
REMARK  107  A    between atoms: _252  and  _253
REMARK  108  A    between atoms: _256  and  _258
REMARK  109  A    between atoms: _258  and  _259
REMARK  110  A    between atoms: _258  and  _261
REMARK  111  A    between atoms: _264  and  _266
REMARK  112  A    between atoms: _266  and  _267
REMARK  113  A    between atoms: _271  and  _272
REMARK  114  A    between atoms: _277  and  _279
REMARK  115  A    between atoms: _279  and  _280
REMARK  116  A    between atoms: _279  and  _282
REMARK  117  A    between atoms: _285  and  _287
REMARK  118  A    between atoms: _287  and  _288
REMARK  119  A    between atoms: _287  and  _290
REMARK  120  A    between atoms: _290  and  _291
REMARK  121  A    between atoms: _296  and  _298
REMARK  122  A    between atoms: _298  and  _299
REMARK  123  A    between atoms: _298  and  _301
REMARK  124  A    between atoms: _301  and  _302
REMARK  125  A    between atoms: _308  and  _310
REMARK  126  A    between atoms: _310  and  _311
REMARK  127  A    between atoms: _310  and  _313
REMARK  128  A    between atoms: _313  and  _314
REMARK  129  A    between atoms: _317  and  _319
REMARK  130  A    between atoms: _319  and  _320
REMARK  131  A    between atoms: _323  and  _325
REMARK  132  A    between atoms: _325  and  _326
REMARK  133  A    between atoms: _325  and  _328
REMARK  134  A    between atoms: _328  and  _329
REMARK  135  A    between atoms: _331  and  _333
REMARK  136  A    between atoms: _333  and  _334
REMARK  137  A    between atoms: _333  and  _336
REMARK                            x       y       z     vdW  Elec       q    Type
REMARK                         _______ _______ _______ _____ _____    ______ ____
ROOT
ATOM      1  O   HOH     1      35.972   5.789  20.080  0.00  0.00    +0.000 OA
ENDROOT
TORSDOF 0
REMARK  Name = ../refined-set-2016/1w4q/1w4q_pocket.pdb
REMARK  137 active torsions:
REMARK  status: ('A' for Active; 'I' for Inactive)
REMARK    1  A    between atoms: _1  and  _3
REMARK    2  A    between atoms: _3  and  _4
REMARK    3  A    between atoms: _7  and  _9
REMARK    4  A    between atoms: _9  and  _10
REMARK    5  A    between atoms: _9  and  _12
REMARK    6  A    between atoms: _12  and  _13
REMARK    7  A    between atoms: _13  and  _14
REMARK    8  A    between atoms: _14  and  _15
REMARK    9  A    between atoms: _15  and  _16
REMARK   10  A    between atoms: _20  and  _22
REMARK   11  A    between atoms: _22  and  _23
REMARK   12  A    between atoms: _22  and  _25
REMARK   13  A    between atoms: _25  and  _26
REMARK   14  A    between atoms: _32  and  _34
REMARK   15  A    between atoms: _34  and  _35
REMARK   16  A    between atoms: _34  and  _37
REMARK   17  A    between atoms: _37  and  _38
REMARK   18  A    between atoms: _38  and  _39
REMARK   19  A    between atoms: _39  and  _40
REMARK   20  A    between atoms: _49  and  _51
REMARK   21  A    between atoms: _51  and  _52
REMARK   22  A    between atoms: _51  and  _54
REMARK   23  A    between atoms: _54  and  _55
REMARK   24  A    between atoms: _55  and  _56
REMARK   25  A    between atoms: _61  and  _63
REMARK   26  A    between atoms: _63  and  _64
REMARK   27  A    between atoms: _63  and  _66
REMARK   28  A    between atoms: _66  and  _67
REMARK   29  A    between atoms: _72  and  _74
REMARK   30  A    between atoms: _74  and  _75
REMARK   31  A    between atoms: _74  and  _77
REMARK   32  A    between atoms: _77  and  _78
REMARK   33  A    between atoms: _78  and  _79
REMARK   34  A    between atoms: _81  and  _83
REMARK   35  A    between atoms: _83  and  _84
REMARK   36  A    between atoms: _83  and  _86
REMARK   37  A    between atoms: _86  and  _87
REMARK   38  A    between atoms: _90  and  _92
REMARK   39  A    between atoms: _92  and  _93
REMARK   40  A    between atoms: _92  and  _95
REMARK   41  A    between atoms: _95  and  _96
REMARK   42  A    between atoms: _96  and  _97
REMARK   43  A    between atoms: _97  and  _98
REMARK   44  A    between atoms: _107  and  _109
REMARK   45  A    between atoms: _109  and  _110
REMARK   46  A    between atoms: _109  and  _112
REMARK   47  A    between atoms: _112  and  _113
REMARK   48  A    between atoms: _113  and  _114
REMARK   49  A    between atoms: _114  and  _115
REMARK   50  A    between atoms: _115  and  _116
REMARK   51  A    between atoms: _121  and  _122
REMARK   52  A    between atoms: _127  and  _129
REMARK   53  A    between atoms: _129  and  _130
REMARK   54  A    between atoms: _129  and  _132
REMARK   55  A    between atoms: _135  and  _137
REMARK   56  A    between atoms: _137  and  _138
REMARK   57  A    between atoms: _137  and  _140
REMARK   58  A    between atoms: _140  and  _141
REMARK   59  A    between atoms: _146  and  _148
REMARK   60  A    between atoms: _148  and  _149
REMARK   61  A    between atoms: _148  and  _151
REMARK   62  A    between atoms: _151  and  _152
REMARK   63  A    between atoms: _155  and  _157
REMARK   64  A    between atoms: _157  and  _158
REMARK   65  A    between atoms: _157  and  _160
REMARK   66  A    between atoms: _160  and  _161
REMARK   67  A    between atoms: _167  and  _169
REMARK   68  A    between atoms: _169  and  _170
REMARK   69  A    between atoms: _169  and  _172
REMARK   70  A    between atoms: _172  and  _173
REMARK   71  A    between atoms: _173  and  _174
REMARK   72  A    between atoms: _174  and  _175
REMARK   73  A    between atoms: _175  and  _176
REMARK   74  A    between atoms: _180  and  _182
REMARK   75  A    between atoms: _182  and  _183
REMARK   76  A    between atoms: _182  and  _185
REMARK   77  A    between atoms: _185  and  _186
REMARK   78  A    between atoms: _191  and  _193
REMARK   79  A    between atoms: _193  and  _194
REMARK   80  A    between atoms: _193  and  _196
REMARK   81  A    between atoms: _196  and  _197
REMARK   82  A    between atoms: _200  and  _202
REMARK   83  A    between atoms: _202  and  _203
REMARK   84  A    between atoms: _202  and  _205
REMARK   85  A    between atoms: _205  and  _206
REMARK   86  A    between atoms: _209  and  _211
REMARK   87  A    between atoms: _211  and  _212
REMARK   88  A    between atoms: _211  and  _214
REMARK   89  A    between atoms: _214  and  _215
REMARK   90  A    between atoms: _218  and  _220
REMARK   91  A    between atoms: _220  and  _221
REMARK   92  A    between atoms: _220  and  _223
REMARK   93  A    between atoms: _225  and  _227
REMARK   94  A    between atoms: _227  and  _228
REMARK   95  A    between atoms: _227  and  _230
REMARK   96  A    between atoms: _230  and  _231
REMARK   97  A    between atoms: _231  and  _232
REMARK   98  A    between atoms: _232  and  _233
REMARK   99  A    between atoms: _233  and  _234
REMARK  100  A    between atoms: _238  and  _240
REMARK  101  A    between atoms: _240  and  _241
REMARK  102  A    between atoms: _240  and  _243
REMARK  103  A    between atoms: _243  and  _244
REMARK  104  A    between atoms: _247  and  _249
REMARK  105  A    between atoms: _249  and  _250
REMARK  106  A    between atoms: _249  and  _252
REMARK  107  A    between atoms: _252  and  _253
REMARK  108  A    between atoms: _256  and  _258
REMARK  109  A    between atoms: _258  and  _259
REMARK  110  A    between atoms: _258  and  _261
REMARK  111  A    between atoms: _264  and  _266
REMARK  112  A    between atoms: _266  and  _267
REMARK  113  A    between atoms: _271  and  _272
REMARK  114  A    between atoms: _277  and  _279
REMARK  115  A    between atoms: _279  and  _280
REMARK  116  A    between atoms: _279  and  _282
REMARK  117  A    between atoms: _285  and  _287
REMARK  118  A    between atoms: _287  and  _288
REMARK  119  A    between atoms: _287  and  _290
REMARK  120  A    between atoms: _290  and  _291
REMARK  121  A    between atoms: _296  and  _298
REMARK  122  A    between atoms: _298  and  _299
REMARK  123  A    between atoms: _298  and  _301
REMARK  124  A    between atoms: _301  and  _302
REMARK  125  A    between atoms: _308  and  _310
REMARK  126  A    between atoms: _310  and  _311
REMARK  127  A    between atoms: _310  and  _313
REMARK  128  A    between atoms: _313  and  _314
REMARK  129  A    between atoms: _317  and  _319
REMARK  130  A    between atoms: _319  and  _320
REMARK  131  A    between atoms: _323  and  _325
REMARK  132  A    between atoms: _325  and  _326
REMARK  133  A    between atoms: _325  and  _328
REMARK  134  A    between atoms: _328  and  _329
REMARK  135  A    between atoms: _331  and  _333
REMARK  136  A    between atoms: _333  and  _334
REMARK  137  A    between atoms: _333  and  _336
REMARK                            x       y       z     vdW  Elec       q    Type
REMARK                         _______ _______ _______ _____ _____    ______ ____
ROOT
ATOM      1  O   HOH     1      37.786   3.581  20.335  0.00  0.00    +0.000 OA
ENDROOT
TORSDOF 0
REMARK  Name = ../refined-set-2016/1w4q/1w4q_pocket.pdb
REMARK  137 active torsions:
REMARK  status: ('A' for Active; 'I' for Inactive)
REMARK    1  A    between atoms: _1  and  _3
REMARK    2  A    between atoms: _3  and  _4
REMARK    3  A    between atoms: _7  and  _9
REMARK    4  A    between atoms: _9  and  _10
REMARK    5  A    between atoms: _9  and  _12
REMARK    6  A    between atoms: _12  and  _13
REMARK    7  A    between atoms: _13  and  _14
REMARK    8  A    between atoms: _14  and  _15
REMARK    9  A    between atoms: _15  and  _16
REMARK   10  A    between atoms: _20  and  _22
REMARK   11  A    between atoms: _22  and  _23
REMARK   12  A    between atoms: _22  and  _25
REMARK   13  A    between atoms: _25  and  _26
REMARK   14  A    between atoms: _32  and  _34
REMARK   15  A    between atoms: _34  and  _35
REMARK   16  A    between atoms: _34  and  _37
REMARK   17  A    between atoms: _37  and  _38
REMARK   18  A    between atoms: _38  and  _39
REMARK   19  A    between atoms: _39  and  _40
REMARK   20  A    between atoms: _49  and  _51
REMARK   21  A    between atoms: _51  and  _52
REMARK   22  A    between atoms: _51  and  _54
REMARK   23  A    between atoms: _54  and  _55
REMARK   24  A    between atoms: _55  and  _56
REMARK   25  A    between atoms: _61  and  _63
REMARK   26  A    between atoms: _63  and  _64
REMARK   27  A    between atoms: _63  and  _66
REMARK   28  A    between atoms: _66  and  _67
REMARK   29  A    between atoms: _72  and  _74
REMARK   30  A    between atoms: _74  and  _75
REMARK   31  A    between atoms: _74  and  _77
REMARK   32  A    between atoms: _77  and  _78
REMARK   33  A    between atoms: _78  and  _79
REMARK   34  A    between atoms: _81  and  _83
REMARK   35  A    between atoms: _83  and  _84
REMARK   36  A    between atoms: _83  and  _86
REMARK   37  A    between atoms: _86  and  _87
REMARK   38  A    between atoms: _90  and  _92
REMARK   39  A    between atoms: _92  and  _93
REMARK   40  A    between atoms: _92  and  _95
REMARK   41  A    between atoms: _95  and  _96
REMARK   42  A    between atoms: _96  and  _97
REMARK   43  A    between atoms: _97  and  _98
REMARK   44  A    between atoms: _107  and  _109
REMARK   45  A    between atoms: _109  and  _110
REMARK   46  A    between atoms: _109  and  _112
REMARK   47  A    between atoms: _112  and  _113
REMARK   48  A    between atoms: _113  and  _114
REMARK   49  A    between atoms: _114  and  _115
REMARK   50  A    between atoms: _115  and  _116
REMARK   51  A    between atoms: _121  and  _122
REMARK   52  A    between atoms: _127  and  _129
REMARK   53  A    between atoms: _129  and  _130
REMARK   54  A    between atoms: _129  and  _132
REMARK   55  A    between atoms: _135  and  _137
REMARK   56  A    between atoms: _137  and  _138
REMARK   57  A    between atoms: _137  and  _140
REMARK   58  A    between atoms: _140  and  _141
REMARK   59  A    between atoms: _146  and  _148
REMARK   60  A    between atoms: _148  and  _149
REMARK   61  A    between atoms: _148  and  _151
REMARK   62  A    between atoms: _151  and  _152
REMARK   63  A    between atoms: _155  and  _157
REMARK   64  A    between atoms: _157  and  _158
REMARK   65  A    between atoms: _157  and  _160
REMARK   66  A    between atoms: _160  and  _161
REMARK   67  A    between atoms: _167  and  _169
REMARK   68  A    between atoms: _169  and  _170
REMARK   69  A    between atoms: _169  and  _172
REMARK   70  A    between atoms: _172  and  _173
REMARK   71  A    between atoms: _173  and  _174
REMARK   72  A    between atoms: _174  and  _175
REMARK   73  A    between atoms: _175  and  _176
REMARK   74  A    between atoms: _180  and  _182
REMARK   75  A    between atoms: _182  and  _183
REMARK   76  A    between atoms: _182  and  _185
REMARK   77  A    between atoms: _185  and  _186
REMARK   78  A    between atoms: _191  and  _193
REMARK   79  A    between atoms: _193  and  _194
REMARK   80  A    between atoms: _193  and  _196
REMARK   81  A    between atoms: _196  and  _197
REMARK   82  A    between atoms: _200  and  _202
REMARK   83  A    between atoms: _202  and  _203
REMARK   84  A    between atoms: _202  and  _205
REMARK   85  A    between atoms: _205  and  _206
REMARK   86  A    between atoms: _209  and  _211
REMARK   87  A    between atoms: _211  and  _212
REMARK   88  A    between atoms: _211  and  _214
REMARK   89  A    between atoms: _214  and  _215
REMARK   90  A    between atoms: _218  and  _220
REMARK   91  A    between atoms: _220  and  _221
REMARK   92  A    between atoms: _220  and  _223
REMARK   93  A    between atoms: _225  and  _227
REMARK   94  A    between atoms: _227  and  _228
REMARK   95  A    between atoms: _227  and  _230
REMARK   96  A    between atoms: _230  and  _231
REMARK   97  A    between atoms: _231  and  _232
REMARK   98  A    between atoms: _232  and  _233
REMARK   99  A    between atoms: _233  and  _234
REMARK  100  A    between atoms: _238  and  _240
REMARK  101  A    between atoms: _240  and  _241
REMARK  102  A    between atoms: _240  and  _243
REMARK  103  A    between atoms: _243  and  _244
REMARK  104  A    between atoms: _247  and  _249
REMARK  105  A    between atoms: _249  and  _250
REMARK  106  A    between atoms: _249  and  _252
REMARK  107  A    between atoms: _252  and  _253
REMARK  108  A    between atoms: _256  and  _258
REMARK  109  A    between atoms: _258  and  _259
REMARK  110  A    between atoms: _258  and  _261
REMARK  111  A    between atoms: _264  and  _266
REMARK  112  A    between atoms: _266  and  _267
REMARK  113  A    between atoms: _271  and  _272
REMARK  114  A    between atoms: _277  and  _279
REMARK  115  A    between atoms: _279  and  _280
REMARK  116  A    between atoms: _279  and  _282
REMARK  117  A    between atoms: _285  and  _287
REMARK  118  A    between atoms: _287  and  _288
REMARK  119  A    between atoms: _287  and  _290
REMARK  120  A    between atoms: _290  and  _291
REMARK  121  A    between atoms: _296  and  _298
REMARK  122  A    between atoms: _298  and  _299
REMARK  123  A    between atoms: _298  and  _301
REMARK  124  A    between atoms: _301  and  _302
REMARK  125  A    between atoms: _308  and  _310
REMARK  126  A    between atoms: _310  and  _311
REMARK  127  A    between atoms: _310  and  _313
REMARK  128  A    between atoms: _313  and  _314
REMARK  129  A    between atoms: _317  and  _319
REMARK  130  A    between atoms: _319  and  _320
REMARK  131  A    between atoms: _323  and  _325
REMARK  132  A    between atoms: _325  and  _326
REMARK  133  A    between atoms: _325  and  _328
REMARK  134  A    between atoms: _328  and  _329
REMARK  135  A    between atoms: _331  and  _333
REMARK  136  A    between atoms: _333  and  _334
REMARK  137  A    between atoms: _333  and  _336
REMARK                            x       y       z     vdW  Elec       q    Type
REMARK                         _______ _______ _______ _____ _____    ______ ____
ROOT
ATOM      1  O   HOH     1      40.755  -1.203   9.955  0.00  0.00    +0.000 OA
ENDROOT
TORSDOF 0
REMARK  Name = ../refined-set-2016/1w4q/1w4q_pocket.pdb
REMARK  137 active torsions:
REMARK  status: ('A' for Active; 'I' for Inactive)
REMARK    1  A    between atoms: _1  and  _3
REMARK    2  A    between atoms: _3  and  _4
REMARK    3  A    between atoms: _7  and  _9
REMARK    4  A    between atoms: _9  and  _10
REMARK    5  A    between atoms: _9  and  _12
REMARK    6  A    between atoms: _12  and  _13
REMARK    7  A    between atoms: _13  and  _14
REMARK    8  A    between atoms: _14  and  _15
REMARK    9  A    between atoms: _15  and  _16
REMARK   10  A    between atoms: _20  and  _22
REMARK   11  A    between atoms: _22  and  _23
REMARK   12  A    between atoms: _22  and  _25
REMARK   13  A    between atoms: _25  and  _26
REMARK   14  A    between atoms: _32  and  _34
REMARK   15  A    between atoms: _34  and  _35
REMARK   16  A    between atoms: _34  and  _37
REMARK   17  A    between atoms: _37  and  _38
REMARK   18  A    between atoms: _38  and  _39
REMARK   19  A    between atoms: _39  and  _40
REMARK   20  A    between atoms: _49  and  _51
REMARK   21  A    between atoms: _51  and  _52
REMARK   22  A    between atoms: _51  and  _54
REMARK   23  A    between atoms: _54  and  _55
REMARK   24  A    between atoms: _55  and  _56
REMARK   25  A    between atoms: _61  and  _63
REMARK   26  A    between atoms: _63  and  _64
REMARK   27  A    between atoms: _63  and  _66
REMARK   28  A    between atoms: _66  and  _67
REMARK   29  A    between atoms: _72  and  _74
REMARK   30  A    between atoms: _74  and  _75
REMARK   31  A    between atoms: _74  and  _77
REMARK   32  A    between atoms: _77  and  _78
REMARK   33  A    between atoms: _78  and  _79
REMARK   34  A    between atoms: _81  and  _83
REMARK   35  A    between atoms: _83  and  _84
REMARK   36  A    between atoms: _83  and  _86
REMARK   37  A    between atoms: _86  and  _87
REMARK   38  A    between atoms: _90  and  _92
REMARK   39  A    between atoms: _92  and  _93
REMARK   40  A    between atoms: _92  and  _95
REMARK   41  A    between atoms: _95  and  _96
REMARK   42  A    between atoms: _96  and  _97
REMARK   43  A    between atoms: _97  and  _98
REMARK   44  A    between atoms: _107  and  _109
REMARK   45  A    between atoms: _109  and  _110
REMARK   46  A    between atoms: _109  and  _112
REMARK   47  A    between atoms: _112  and  _113
REMARK   48  A    between atoms: _113  and  _114
REMARK   49  A    between atoms: _114  and  _115
REMARK   50  A    between atoms: _115  and  _116
REMARK   51  A    between atoms: _121  and  _122
REMARK   52  A    between atoms: _127  and  _129
REMARK   53  A    between atoms: _129  and  _130
REMARK   54  A    between atoms: _129  and  _132
REMARK   55  A    between atoms: _135  and  _137
REMARK   56  A    between atoms: _137  and  _138
REMARK   57  A    between atoms: _137  and  _140
REMARK   58  A    between atoms: _140  and  _141
REMARK   59  A    between atoms: _146  and  _148
REMARK   60  A    between atoms: _148  and  _149
REMARK   61  A    between atoms: _148  and  _151
REMARK   62  A    between atoms: _151  and  _152
REMARK   63  A    between atoms: _155  and  _157
REMARK   64  A    between atoms: _157  and  _158
REMARK   65  A    between atoms: _157  and  _160
REMARK   66  A    between atoms: _160  and  _161
REMARK   67  A    between atoms: _167  and  _169
REMARK   68  A    between atoms: _169  and  _170
REMARK   69  A    between atoms: _169  and  _172
REMARK   70  A    between atoms: _172  and  _173
REMARK   71  A    between atoms: _173  and  _174
REMARK   72  A    between atoms: _174  and  _175
REMARK   73  A    between atoms: _175  and  _176
REMARK   74  A    between atoms: _180  and  _182
REMARK   75  A    between atoms: _182  and  _183
REMARK   76  A    between atoms: _182  and  _185
REMARK   77  A    between atoms: _185  and  _186
REMARK   78  A    between atoms: _191  and  _193
REMARK   79  A    between atoms: _193  and  _194
REMARK   80  A    between atoms: _193  and  _196
REMARK   81  A    between atoms: _196  and  _197
REMARK   82  A    between atoms: _200  and  _202
REMARK   83  A    between atoms: _202  and  _203
REMARK   84  A    between atoms: _202  and  _205
REMARK   85  A    between atoms: _205  and  _206
REMARK   86  A    between atoms: _209  and  _211
REMARK   87  A    between atoms: _211  and  _212
REMARK   88  A    between atoms: _211  and  _214
REMARK   89  A    between atoms: _214  and  _215
REMARK   90  A    between atoms: _218  and  _220
REMARK   91  A    between atoms: _220  and  _221
REMARK   92  A    between atoms: _220  and  _223
REMARK   93  A    between atoms: _225  and  _227
REMARK   94  A    between atoms: _227  and  _228
REMARK   95  A    between atoms: _227  and  _230
REMARK   96  A    between atoms: _230  and  _231
REMARK   97  A    between atoms: _231  and  _232
REMARK   98  A    between atoms: _232  and  _233
REMARK   99  A    between atoms: _233  and  _234
REMARK  100  A    between atoms: _238  and  _240
REMARK  101  A    between atoms: _240  and  _241
REMARK  102  A    between atoms: _240  and  _243
REMARK  103  A    between atoms: _243  and  _244
REMARK  104  A    between atoms: _247  and  _249
REMARK  105  A    between atoms: _249  and  _250
REMARK  106  A    between atoms: _249  and  _252
REMARK  107  A    between atoms: _252  and  _253
REMARK  108  A    between atoms: _256  and  _258
REMARK  109  A    between atoms: _258  and  _259
REMARK  110  A    between atoms: _258  and  _261
REMARK  111  A    between atoms: _264  and  _266
REMARK  112  A    between atoms: _266  and  _267
REMARK  113  A    between atoms: _271  and  _272
REMARK  114  A    between atoms: _277  and  _279
REMARK  115  A    between atoms: _279  and  _280
REMARK  116  A    between atoms: _279  and  _282
REMARK  117  A    between atoms: _285  and  _287
REMARK  118  A    between atoms: _287  and  _288
REMARK  119  A    between atoms: _287  and  _290
REMARK  120  A    between atoms: _290  and  _291
REMARK  121  A    between atoms: _296  and  _298
REMARK  122  A    between atoms: _298  and  _299
REMARK  123  A    between atoms: _298  and  _301
REMARK  124  A    between atoms: _301  and  _302
REMARK  125  A    between atoms: _308  and  _310
REMARK  126  A    between atoms: _310  and  _311
REMARK  127  A    between atoms: _310  and  _313
REMARK  128  A    between atoms: _313  and  _314
REMARK  129  A    between atoms: _317  and  _319
REMARK  130  A    between atoms: _319  and  _320
REMARK  131  A    between atoms: _323  and  _325
REMARK  132  A    between atoms: _325  and  _326
REMARK  133  A    between atoms: _325  and  _328
REMARK  134  A    between atoms: _328  and  _329
REMARK  135  A    between atoms: _331  and  _333
REMARK  136  A    between atoms: _333  and  _334
REMARK  137  A    between atoms: _333  and  _336
REMARK                            x       y       z     vdW  Elec       q    Type
REMARK                         _______ _______ _______ _____ _____    ______ ____
ROOT
ATOM      1  O   HOH     1      38.940  -4.887  15.863  0.00  0.00    +0.000 OA
ENDROOT
TORSDOF 0
REMARK  Name = ../refined-set-2016/1w4q/1w4q_pocket.pdb
REMARK  137 active torsions:
REMARK  status: ('A' for Active; 'I' for Inactive)
REMARK    1  A    between atoms: _1  and  _3
REMARK    2  A    between atoms: _3  and  _4
REMARK    3  A    between atoms: _7  and  _9
REMARK    4  A    between atoms: _9  and  _10
REMARK    5  A    between atoms: _9  and  _12
REMARK    6  A    between atoms: _12  and  _13
REMARK    7  A    between atoms: _13  and  _14
REMARK    8  A    between atoms: _14  and  _15
REMARK    9  A    between atoms: _15  and  _16
REMARK   10  A    between atoms: _20  and  _22
REMARK   11  A    between atoms: _22  and  _23
REMARK   12  A    between atoms: _22  and  _25
REMARK   13  A    between atoms: _25  and  _26
REMARK   14  A    between atoms: _32  and  _34
REMARK   15  A    between atoms: _34  and  _35
REMARK   16  A    between atoms: _34  and  _37
REMARK   17  A    between atoms: _37  and  _38
REMARK   18  A    between atoms: _38  and  _39
REMARK   19  A    between atoms: _39  and  _40
REMARK   20  A    between atoms: _49  and  _51
REMARK   21  A    between atoms: _51  and  _52
REMARK   22  A    between atoms: _51  and  _54
REMARK   23  A    between atoms: _54  and  _55
REMARK   24  A    between atoms: _55  and  _56
REMARK   25  A    between atoms: _61  and  _63
REMARK   26  A    between atoms: _63  and  _64
REMARK   27  A    between atoms: _63  and  _66
REMARK   28  A    between atoms: _66  and  _67
REMARK   29  A    between atoms: _72  and  _74
REMARK   30  A    between atoms: _74  and  _75
REMARK   31  A    between atoms: _74  and  _77
REMARK   32  A    between atoms: _77  and  _78
REMARK   33  A    between atoms: _78  and  _79
REMARK   34  A    between atoms: _81  and  _83
REMARK   35  A    between atoms: _83  and  _84
REMARK   36  A    between atoms: _83  and  _86
REMARK   37  A    between atoms: _86  and  _87
REMARK   38  A    between atoms: _90  and  _92
REMARK   39  A    between atoms: _92  and  _93
REMARK   40  A    between atoms: _92  and  _95
REMARK   41  A    between atoms: _95  and  _96
REMARK   42  A    between atoms: _96  and  _97
REMARK   43  A    between atoms: _97  and  _98
REMARK   44  A    between atoms: _107  and  _109
REMARK   45  A    between atoms: _109  and  _110
REMARK   46  A    between atoms: _109  and  _112
REMARK   47  A    between atoms: _112  and  _113
REMARK   48  A    between atoms: _113  and  _114
REMARK   49  A    between atoms: _114  and  _115
REMARK   50  A    between atoms: _115  and  _116
REMARK   51  A    between atoms: _121  and  _122
REMARK   52  A    between atoms: _127  and  _129
REMARK   53  A    between atoms: _129  and  _130
REMARK   54  A    between atoms: _129  and  _132
REMARK   55  A    between atoms: _135  and  _137
REMARK   56  A    between atoms: _137  and  _138
REMARK   57  A    between atoms: _137  and  _140
REMARK   58  A    between atoms: _140  and  _141
REMARK   59  A    between atoms: _146  and  _148
REMARK   60  A    between atoms: _148  and  _149
REMARK   61  A    between atoms: _148  and  _151
REMARK   62  A    between atoms: _151  and  _152
REMARK   63  A    between atoms: _155  and  _157
REMARK   64  A    between atoms: _157  and  _158
REMARK   65  A    between atoms: _157  and  _160
REMARK   66  A    between atoms: _160  and  _161
REMARK   67  A    between atoms: _167  and  _169
REMARK   68  A    between atoms: _169  and  _170
REMARK   69  A    between atoms: _169  and  _172
REMARK   70  A    between atoms: _172  and  _173
REMARK   71  A    between atoms: _173  and  _174
REMARK   72  A    between atoms: _174  and  _175
REMARK   73  A    between atoms: _175  and  _176
REMARK   74  A    between atoms: _180  and  _182
REMARK   75  A    between atoms: _182  and  _183
REMARK   76  A    between atoms: _182  and  _185
REMARK   77  A    between atoms: _185  and  _186
REMARK   78  A    between atoms: _191  and  _193
REMARK   79  A    between atoms: _193  and  _194
REMARK   80  A    between atoms: _193  and  _196
REMARK   81  A    between atoms: _196  and  _197
REMARK   82  A    between atoms: _200  and  _202
REMARK   83  A    between atoms: _202  and  _203
REMARK   84  A    between atoms: _202  and  _205
REMARK   85  A    between atoms: _205  and  _206
REMARK   86  A    between atoms: _209  and  _211
REMARK   87  A    between atoms: _211  and  _212
REMARK   88  A    between atoms: _211  and  _214
REMARK   89  A    between atoms: _214  and  _215
REMARK   90  A    between atoms: _218  and  _220
REMARK   91  A    between atoms: _220  and  _221
REMARK   92  A    between atoms: _220  and  _223
REMARK   93  A    between atoms: _225  and  _227
REMARK   94  A    between atoms: _227  and  _228
REMARK   95  A    between atoms: _227  and  _230
REMARK   96  A    between atoms: _230  and  _231
REMARK   97  A    between atoms: _231  and  _232
REMARK   98  A    between atoms: _232  and  _233
REMARK   99  A    between atoms: _233  and  _234
REMARK  100  A    between atoms: _238  and  _240
REMARK  101  A    between atoms: _240  and  _241
REMARK  102  A    between atoms: _240  and  _243
REMARK  103  A    between atoms: _243  and  _244
REMARK  104  A    between atoms: _247  and  _249
REMARK  105  A    between atoms: _249  and  _250
REMARK  106  A    between atoms: _249  and  _252
REMARK  107  A    between atoms: _252  and  _253
REMARK  108  A    between atoms: _256  and  _258
REMARK  109  A    between atoms: _258  and  _259
REMARK  110  A    between atoms: _258  and  _261
REMARK  111  A    between atoms: _264  and  _266
REMARK  112  A    between atoms: _266  and  _267
REMARK  113  A    between atoms: _271  and  _272
REMARK  114  A    between atoms: _277  and  _279
REMARK  115  A    between atoms: _279  and  _280
REMARK  116  A    between atoms: _279  and  _282
REMARK  117  A    between atoms: _285  and  _287
REMARK  118  A    between atoms: _287  and  _288
REMARK  119  A    between atoms: _287  and  _290
REMARK  120  A    between atoms: _290  and  _291
REMARK  121  A    between atoms: _296  and  _298
REMARK  122  A    between atoms: _298  and  _299
REMARK  123  A    between atoms: _298  and  _301
REMARK  124  A    between atoms: _301  and  _302
REMARK  125  A    between atoms: _308  and  _310
REMARK  126  A    between atoms: _310  and  _311
REMARK  127  A    between atoms: _310  and  _313
REMARK  128  A    between atoms: _313  and  _314
REMARK  129  A    between atoms: _317  and  _319
REMARK  130  A    between atoms: _319  and  _320
REMARK  131  A    between atoms: _323  and  _325
REMARK  132  A    between atoms: _325  and  _326
REMARK  133  A    between atoms: _325  and  _328
REMARK  134  A    between atoms: _328  and  _329
REMARK  135  A    between atoms: _331  and  _333
REMARK  136  A    between atoms: _333  and  _334
REMARK  137  A    between atoms: _333  and  _336
REMARK                            x       y       z     vdW  Elec       q    Type
REMARK                         _______ _______ _______ _____ _____    ______ ____
ROOT
ATOM      1  O   HOH     1      41.320   2.389  21.578  0.00  0.00    +0.000 OA
ENDROOT
TORSDOF 0
REMARK  Name = ../refined-set-2016/1w4q/1w4q_pocket.pdb
REMARK  137 active torsions:
REMARK  status: ('A' for Active; 'I' for Inactive)
REMARK    1  A    between atoms: _1  and  _3
REMARK    2  A    between atoms: _3  and  _4
REMARK    3  A    between atoms: _7  and  _9
REMARK    4  A    between atoms: _9  and  _10
REMARK    5  A    between atoms: _9  and  _12
REMARK    6  A    between atoms: _12  and  _13
REMARK    7  A    between atoms: _13  and  _14
REMARK    8  A    between atoms: _14  and  _15
REMARK    9  A    between atoms: _15  and  _16
REMARK   10  A    between atoms: _20  and  _22
REMARK   11  A    between atoms: _22  and  _23
REMARK   12  A    between atoms: _22  and  _25
REMARK   13  A    between atoms: _25  and  _26
REMARK   14  A    between atoms: _32  and  _34
REMARK   15  A    between atoms: _34  and  _35
REMARK   16  A    between atoms: _34  and  _37
REMARK   17  A    between atoms: _37  and  _38
REMARK   18  A    between atoms: _38  and  _39
REMARK   19  A    between atoms: _39  and  _40
REMARK   20  A    between atoms: _49  and  _51
REMARK   21  A    between atoms: _51  and  _52
REMARK   22  A    between atoms: _51  and  _54
REMARK   23  A    between atoms: _54  and  _55
REMARK   24  A    between atoms: _55  and  _56
REMARK   25  A    between atoms: _61  and  _63
REMARK   26  A    between atoms: _63  and  _64
REMARK   27  A    between atoms: _63  and  _66
REMARK   28  A    between atoms: _66  and  _67
REMARK   29  A    between atoms: _72  and  _74
REMARK   30  A    between atoms: _74  and  _75
REMARK   31  A    between atoms: _74  and  _77
REMARK   32  A    between atoms: _77  and  _78
REMARK   33  A    between atoms: _78  and  _79
REMARK   34  A    between atoms: _81  and  _83
REMARK   35  A    between atoms: _83  and  _84
REMARK   36  A    between atoms: _83  and  _86
REMARK   37  A    between atoms: _86  and  _87
REMARK   38  A    between atoms: _90  and  _92
REMARK   39  A    between atoms: _92  and  _93
REMARK   40  A    between atoms: _92  and  _95
REMARK   41  A    between atoms: _95  and  _96
REMARK   42  A    between atoms: _96  and  _97
REMARK   43  A    between atoms: _97  and  _98
REMARK   44  A    between atoms: _107  and  _109
REMARK   45  A    between atoms: _109  and  _110
REMARK   46  A    between atoms: _109  and  _112
REMARK   47  A    between atoms: _112  and  _113
REMARK   48  A    between atoms: _113  and  _114
REMARK   49  A    between atoms: _114  and  _115
REMARK   50  A    between atoms: _115  and  _116
REMARK   51  A    between atoms: _121  and  _122
REMARK   52  A    between atoms: _127  and  _129
REMARK   53  A    between atoms: _129  and  _130
REMARK   54  A    between atoms: _129  and  _132
REMARK   55  A    between atoms: _135  and  _137
REMARK   56  A    between atoms: _137  and  _138
REMARK   57  A    between atoms: _137  and  _140
REMARK   58  A    between atoms: _140  and  _141
REMARK   59  A    between atoms: _146  and  _148
REMARK   60  A    between atoms: _148  and  _149
REMARK   61  A    between atoms: _148  and  _151
REMARK   62  A    between atoms: _151  and  _152
REMARK   63  A    between atoms: _155  and  _157
REMARK   64  A    between atoms: _157  and  _158
REMARK   65  A    between atoms: _157  and  _160
REMARK   66  A    between atoms: _160  and  _161
REMARK   67  A    between atoms: _167  and  _169
REMARK   68  A    between atoms: _169  and  _170
REMARK   69  A    between atoms: _169  and  _172
REMARK   70  A    between atoms: _172  and  _173
REMARK   71  A    between atoms: _173  and  _174
REMARK   72  A    between atoms: _174  and  _175
REMARK   73  A    between atoms: _175  and  _176
REMARK   74  A    between atoms: _180  and  _182
REMARK   75  A    between atoms: _182  and  _183
REMARK   76  A    between atoms: _182  and  _185
REMARK   77  A    between atoms: _185  and  _186
REMARK   78  A    between atoms: _191  and  _193
REMARK   79  A    between atoms: _193  and  _194
REMARK   80  A    between atoms: _193  and  _196
REMARK   81  A    between atoms: _196  and  _197
REMARK   82  A    between atoms: _200  and  _202
REMARK   83  A    between atoms: _202  and  _203
REMARK   84  A    between atoms: _202  and  _205
REMARK   85  A    between atoms: _205  and  _206
REMARK   86  A    between atoms: _209  and  _211
REMARK   87  A    between atoms: _211  and  _212
REMARK   88  A    between atoms: _211  and  _214
REMARK   89  A    between atoms: _214  and  _215
REMARK   90  A    between atoms: _218  and  _220
REMARK   91  A    between atoms: _220  and  _221
REMARK   92  A    between atoms: _220  and  _223
REMARK   93  A    between atoms: _225  and  _227
REMARK   94  A    between atoms: _227  and  _228
REMARK   95  A    between atoms: _227  and  _230
REMARK   96  A    between atoms: _230  and  _231
REMARK   97  A    between atoms: _231  and  _232
REMARK   98  A    between atoms: _232  and  _233
REMARK   99  A    between atoms: _233  and  _234
REMARK  100  A    between atoms: _238  and  _240
REMARK  101  A    between atoms: _240  and  _241
REMARK  102  A    between atoms: _240  and  _243
REMARK  103  A    between atoms: _243  and  _244
REMARK  104  A    between atoms: _247  and  _249
REMARK  105  A    between atoms: _249  and  _250
REMARK  106  A    between atoms: _249  and  _252
REMARK  107  A    between atoms: _252  and  _253
REMARK  108  A    between atoms: _256  and  _258
REMARK  109  A    between atoms: _258  and  _259
REMARK  110  A    between atoms: _258  and  _261
REMARK  111  A    between atoms: _264  and  _266
REMARK  112  A    between atoms: _266  and  _267
REMARK  113  A    between atoms: _271  and  _272
REMARK  114  A    between atoms: _277  and  _279
REMARK  115  A    between atoms: _279  and  _280
REMARK  116  A    between atoms: _279  and  _282
REMARK  117  A    between atoms: _285  and  _287
REMARK  118  A    between atoms: _287  and  _288
REMARK  119  A    between atoms: _287  and  _290
REMARK  120  A    between atoms: _290  and  _291
REMARK  121  A    between atoms: _296  and  _298
REMARK  122  A    between atoms: _298  and  _299
REMARK  123  A    between atoms: _298  and  _301
REMARK  124  A    between atoms: _301  and  _302
REMARK  125  A    between atoms: _308  and  _310
REMARK  126  A    between atoms: _310  and  _311
REMARK  127  A    between atoms: _310  and  _313
REMARK  128  A    between atoms: _313  and  _314
REMARK  129  A    between atoms: _317  and  _319
REMARK  130  A    between atoms: _319  and  _320
REMARK  131  A    between atoms: _323  and  _325
REMARK  132  A    between atoms: _325  and  _326
REMARK  133  A    between atoms: _325  and  _328
REMARK  134  A    between atoms: _328  and  _329
REMARK  135  A    between atoms: _331  and  _333
REMARK  136  A    between atoms: _333  and  _334
REMARK  137  A    between atoms: _333  and  _336
REMARK                            x       y       z     vdW  Elec       q    Type
REMARK                         _______ _______ _______ _____ _____    ______ ____
ROOT
ATOM      1  O   HOH     1      31.022  -9.717  10.921  0.00  0.00    +0.000 OA
ENDROOT
TORSDOF 0
REMARK  Name = ../refined-set-2016/1w4q/1w4q_pocket.pdb
REMARK  137 active torsions:
REMARK  status: ('A' for Active; 'I' for Inactive)
REMARK    1  A    between atoms: _1  and  _3
REMARK    2  A    between atoms: _3  and  _4
REMARK    3  A    between atoms: _7  and  _9
REMARK    4  A    between atoms: _9  and  _10
REMARK    5  A    between atoms: _9  and  _12
REMARK    6  A    between atoms: _12  and  _13
REMARK    7  A    between atoms: _13  and  _14
REMARK    8  A    between atoms: _14  and  _15
REMARK    9  A    between atoms: _15  and  _16
REMARK   10  A    between atoms: _20  and  _22
REMARK   11  A    between atoms: _22  and  _23
REMARK   12  A    between atoms: _22  and  _25
REMARK   13  A    between atoms: _25  and  _26
REMARK   14  A    between atoms: _32  and  _34
REMARK   15  A    between atoms: _34  and  _35
REMARK   16  A    between atoms: _34  and  _37
REMARK   17  A    between atoms: _37  and  _38
REMARK   18  A    between atoms: _38  and  _39
REMARK   19  A    between atoms: _39  and  _40
REMARK   20  A    between atoms: _49  and  _51
REMARK   21  A    between atoms: _51  and  _52
REMARK   22  A    between atoms: _51  and  _54
REMARK   23  A    between atoms: _54  and  _55
REMARK   24  A    between atoms: _55  and  _56
REMARK   25  A    between atoms: _61  and  _63
REMARK   26  A    between atoms: _63  and  _64
REMARK   27  A    between atoms: _63  and  _66
REMARK   28  A    between atoms: _66  and  _67
REMARK   29  A    between atoms: _72  and  _74
REMARK   30  A    between atoms: _74  and  _75
REMARK   31  A    between atoms: _74  and  _77
REMARK   32  A    between atoms: _77  and  _78
REMARK   33  A    between atoms: _78  and  _79
REMARK   34  A    between atoms: _81  and  _83
REMARK   35  A    between atoms: _83  and  _84
REMARK   36  A    between atoms: _83  and  _86
REMARK   37  A    between atoms: _86  and  _87
REMARK   38  A    between atoms: _90  and  _92
REMARK   39  A    between atoms: _92  and  _93
REMARK   40  A    between atoms: _92  and  _95
REMARK   41  A    between atoms: _95  and  _96
REMARK   42  A    between atoms: _96  and  _97
REMARK   43  A    between atoms: _97  and  _98
REMARK   44  A    between atoms: _107  and  _109
REMARK   45  A    between atoms: _109  and  _110
REMARK   46  A    between atoms: _109  and  _112
REMARK   47  A    between atoms: _112  and  _113
REMARK   48  A    between atoms: _113  and  _114
REMARK   49  A    between atoms: _114  and  _115
REMARK   50  A    between atoms: _115  and  _116
REMARK   51  A    between atoms: _121  and  _122
REMARK   52  A    between atoms: _127  and  _129
REMARK   53  A    between atoms: _129  and  _130
REMARK   54  A    between atoms: _129  and  _132
REMARK   55  A    between atoms: _135  and  _137
REMARK   56  A    between atoms: _137  and  _138
REMARK   57  A    between atoms: _137  and  _140
REMARK   58  A    between atoms: _140  and  _141
REMARK   59  A    between atoms: _146  and  _148
REMARK   60  A    between atoms: _148  and  _149
REMARK   61  A    between atoms: _148  and  _151
REMARK   62  A    between atoms: _151  and  _152
REMARK   63  A    between atoms: _155  and  _157
REMARK   64  A    between atoms: _157  and  _158
REMARK   65  A    between atoms: _157  and  _160
REMARK   66  A    between atoms: _160  and  _161
REMARK   67  A    between atoms: _167  and  _169
REMARK   68  A    between atoms: _169  and  _170
REMARK   69  A    between atoms: _169  and  _172
REMARK   70  A    between atoms: _172  and  _173
REMARK   71  A    between atoms: _173  and  _174
REMARK   72  A    between atoms: _174  and  _175
REMARK   73  A    between atoms: _175  and  _176
REMARK   74  A    between atoms: _180  and  _182
REMARK   75  A    between atoms: _182  and  _183
REMARK   76  A    between atoms: _182  and  _185
REMARK   77  A    between atoms: _185  and  _186
REMARK   78  A    between atoms: _191  and  _193
REMARK   79  A    between atoms: _193  and  _194
REMARK   80  A    between atoms: _193  and  _196
REMARK   81  A    between atoms: _196  and  _197
REMARK   82  A    between atoms: _200  and  _202
REMARK   83  A    between atoms: _202  and  _203
REMARK   84  A    between atoms: _202  and  _205
REMARK   85  A    between atoms: _205  and  _206
REMARK   86  A    between atoms: _209  and  _211
REMARK   87  A    between atoms: _211  and  _212
REMARK   88  A    between atoms: _211  and  _214
REMARK   89  A    between atoms: _214  and  _215
REMARK   90  A    between atoms: _218  and  _220
REMARK   91  A    between atoms: _220  and  _221
REMARK   92  A    between atoms: _220  and  _223
REMARK   93  A    between atoms: _225  and  _227
REMARK   94  A    between atoms: _227  and  _228
REMARK   95  A    between atoms: _227  and  _230
REMARK   96  A    between atoms: _230  and  _231
REMARK   97  A    between atoms: _231  and  _232
REMARK   98  A    between atoms: _232  and  _233
REMARK   99  A    between atoms: _233  and  _234
REMARK  100  A    between atoms: _238  and  _240
REMARK  101  A    between atoms: _240  and  _241
REMARK  102  A    between atoms: _240  and  _243
REMARK  103  A    between atoms: _243  and  _244
REMARK  104  A    between atoms: _247  and  _249
REMARK  105  A    between atoms: _249  and  _250
REMARK  106  A    between atoms: _249  and  _252
REMARK  107  A    between atoms: _252  and  _253
REMARK  108  A    between atoms: _256  and  _258
REMARK  109  A    between atoms: _258  and  _259
REMARK  110  A    between atoms: _258  and  _261
REMARK  111  A    between atoms: _264  and  _266
REMARK  112  A    between atoms: _266  and  _267
REMARK  113  A    between atoms: _271  and  _272
REMARK  114  A    between atoms: _277  and  _279
REMARK  115  A    between atoms: _279  and  _280
REMARK  116  A    between atoms: _279  and  _282
REMARK  117  A    between atoms: _285  and  _287
REMARK  118  A    between atoms: _287  and  _288
REMARK  119  A    between atoms: _287  and  _290
REMARK  120  A    between atoms: _290  and  _291
REMARK  121  A    between atoms: _296  and  _298
REMARK  122  A    between atoms: _298  and  _299
REMARK  123  A    between atoms: _298  and  _301
REMARK  124  A    between atoms: _301  and  _302
REMARK  125  A    between atoms: _308  and  _310
REMARK  126  A    between atoms: _310  and  _311
REMARK  127  A    between atoms: _310  and  _313
REMARK  128  A    between atoms: _313  and  _314
REMARK  129  A    between atoms: _317  and  _319
REMARK  130  A    between atoms: _319  and  _320
REMARK  131  A    between atoms: _323  and  _325
REMARK  132  A    between atoms: _325  and  _326
REMARK  133  A    between atoms: _325  and  _328
REMARK  134  A    between atoms: _328  and  _329
REMARK  135  A    between atoms: _331  and  _333
REMARK  136  A    between atoms: _333  and  _334
REMARK  137  A    between atoms: _333  and  _336
REMARK                            x       y       z     vdW  Elec       q    Type
REMARK                         _______ _______ _______ _____ _____    ______ ____
ROOT
ATOM      1  O   HOH     1      35.916   9.864  19.535  0.00  0.00    +0.000 OA
ENDROOT
TORSDOF 0
REMARK  Name = ../refined-set-2016/1w4q/1w4q_pocket.pdb
REMARK  137 active torsions:
REMARK  status: ('A' for Active; 'I' for Inactive)
REMARK    1  A    between atoms: _1  and  _3
REMARK    2  A    between atoms: _3  and  _4
REMARK    3  A    between atoms: _7  and  _9
REMARK    4  A    between atoms: _9  and  _10
REMARK    5  A    between atoms: _9  and  _12
REMARK    6  A    between atoms: _12  and  _13
REMARK    7  A    between atoms: _13  and  _14
REMARK    8  A    between atoms: _14  and  _15
REMARK    9  A    between atoms: _15  and  _16
REMARK   10  A    between atoms: _20  and  _22
REMARK   11  A    between atoms: _22  and  _23
REMARK   12  A    between atoms: _22  and  _25
REMARK   13  A    between atoms: _25  and  _26
REMARK   14  A    between atoms: _32  and  _34
REMARK   15  A    between atoms: _34  and  _35
REMARK   16  A    between atoms: _34  and  _37
REMARK   17  A    between atoms: _37  and  _38
REMARK   18  A    between atoms: _38  and  _39
REMARK   19  A    between atoms: _39  and  _40
REMARK   20  A    between atoms: _49  and  _51
REMARK   21  A    between atoms: _51  and  _52
REMARK   22  A    between atoms: _51  and  _54
REMARK   23  A    between atoms: _54  and  _55
REMARK   24  A    between atoms: _55  and  _56
REMARK   25  A    between atoms: _61  and  _63
REMARK   26  A    between atoms: _63  and  _64
REMARK   27  A    between atoms: _63  and  _66
REMARK   28  A    between atoms: _66  and  _67
REMARK   29  A    between atoms: _72  and  _74
REMARK   30  A    between atoms: _74  and  _75
REMARK   31  A    between atoms: _74  and  _77
REMARK   32  A    between atoms: _77  and  _78
REMARK   33  A    between atoms: _78  and  _79
REMARK   34  A    between atoms: _81  and  _83
REMARK   35  A    between atoms: _83  and  _84
REMARK   36  A    between atoms: _83  and  _86
REMARK   37  A    between atoms: _86  and  _87
REMARK   38  A    between atoms: _90  and  _92
REMARK   39  A    between atoms: _92  and  _93
REMARK   40  A    between atoms: _92  and  _95
REMARK   41  A    between atoms: _95  and  _96
REMARK   42  A    between atoms: _96  and  _97
REMARK   43  A    between atoms: _97  and  _98
REMARK   44  A    between atoms: _107  and  _109
REMARK   45  A    between atoms: _109  and  _110
REMARK   46  A    between atoms: _109  and  _112
REMARK   47  A    between atoms: _112  and  _113
REMARK   48  A    between atoms: _113  and  _114
REMARK   49  A    between atoms: _114  and  _115
REMARK   50  A    between atoms: _115  and  _116
REMARK   51  A    between atoms: _121  and  _122
REMARK   52  A    between atoms: _127  and  _129
REMARK   53  A    between atoms: _129  and  _130
REMARK   54  A    between atoms: _129  and  _132
REMARK   55  A    between atoms: _135  and  _137
REMARK   56  A    between atoms: _137  and  _138
REMARK   57  A    between atoms: _137  and  _140
REMARK   58  A    between atoms: _140  and  _141
REMARK   59  A    between atoms: _146  and  _148
REMARK   60  A    between atoms: _148  and  _149
REMARK   61  A    between atoms: _148  and  _151
REMARK   62  A    between atoms: _151  and  _152
REMARK   63  A    between atoms: _155  and  _157
REMARK   64  A    between atoms: _157  and  _158
REMARK   65  A    between atoms: _157  and  _160
REMARK   66  A    between atoms: _160  and  _161
REMARK   67  A    between atoms: _167  and  _169
REMARK   68  A    between atoms: _169  and  _170
REMARK   69  A    between atoms: _169  and  _172
REMARK   70  A    between atoms: _172  and  _173
REMARK   71  A    between atoms: _173  and  _174
REMARK   72  A    between atoms: _174  and  _175
REMARK   73  A    between atoms: _175  and  _176
REMARK   74  A    between atoms: _180  and  _182
REMARK   75  A    between atoms: _182  and  _183
REMARK   76  A    between atoms: _182  and  _185
REMARK   77  A    between atoms: _185  and  _186
REMARK   78  A    between atoms: _191  and  _193
REMARK   79  A    between atoms: _193  and  _194
REMARK   80  A    between atoms: _193  and  _196
REMARK   81  A    between atoms: _196  and  _197
REMARK   82  A    between atoms: _200  and  _202
REMARK   83  A    between atoms: _202  and  _203
REMARK   84  A    between atoms: _202  and  _205
REMARK   85  A    between atoms: _205  and  _206
REMARK   86  A    between atoms: _209  and  _211
REMARK   87  A    between atoms: _211  and  _212
REMARK   88  A    between atoms: _211  and  _214
REMARK   89  A    between atoms: _214  and  _215
REMARK   90  A    between atoms: _218  and  _220
REMARK   91  A    between atoms: _220  and  _221
REMARK   92  A    between atoms: _220  and  _223
REMARK   93  A    between atoms: _225  and  _227
REMARK   94  A    between atoms: _227  and  _228
REMARK   95  A    between atoms: _227  and  _230
REMARK   96  A    between atoms: _230  and  _231
REMARK   97  A    between atoms: _231  and  _232
REMARK   98  A    between atoms: _232  and  _233
REMARK   99  A    between atoms: _233  and  _234
REMARK  100  A    between atoms: _238  and  _240
REMARK  101  A    between atoms: _240  and  _241
REMARK  102  A    between atoms: _240  and  _243
REMARK  103  A    between atoms: _243  and  _244
REMARK  104  A    between atoms: _247  and  _249
REMARK  105  A    between atoms: _249  and  _250
REMARK  106  A    between atoms: _249  and  _252
REMARK  107  A    between atoms: _252  and  _253
REMARK  108  A    between atoms: _256  and  _258
REMARK  109  A    between atoms: _258  and  _259
REMARK  110  A    between atoms: _258  and  _261
REMARK  111  A    between atoms: _264  and  _266
REMARK  112  A    between atoms: _266  and  _267
REMARK  113  A    between atoms: _271  and  _272
REMARK  114  A    between atoms: _277  and  _279
REMARK  115  A    between atoms: _279  and  _280
REMARK  116  A    between atoms: _279  and  _282
REMARK  117  A    between atoms: _285  and  _287
REMARK  118  A    between atoms: _287  and  _288
REMARK  119  A    between atoms: _287  and  _290
REMARK  120  A    between atoms: _290  and  _291
REMARK  121  A    between atoms: _296  and  _298
REMARK  122  A    between atoms: _298  and  _299
REMARK  123  A    between atoms: _298  and  _301
REMARK  124  A    between atoms: _301  and  _302
REMARK  125  A    between atoms: _308  and  _310
REMARK  126  A    between atoms: _310  and  _311
REMARK  127  A    between atoms: _310  and  _313
REMARK  128  A    between atoms: _313  and  _314
REMARK  129  A    between atoms: _317  and  _319
REMARK  130  A    between atoms: _319  and  _320
REMARK  131  A    between atoms: _323  and  _325
REMARK  132  A    between atoms: _325  and  _326
REMARK  133  A    between atoms: _325  and  _328
REMARK  134  A    between atoms: _328  and  _329
REMARK  135  A    between atoms: _331  and  _333
REMARK  136  A    between atoms: _333  and  _334
REMARK  137  A    between atoms: _333  and  _336
REMARK                            x       y       z     vdW  Elec       q    Type
REMARK                         _______ _______ _______ _____ _____    ______ ____
ROOT
ATOM      1  O   HOH     1      36.378   7.582  18.218  0.00  0.00    +0.000 OA
ENDROOT
TORSDOF 0
REMARK  Name = ../refined-set-2016/1w4q/1w4q_pocket.pdb
REMARK  137 active torsions:
REMARK  status: ('A' for Active; 'I' for Inactive)
REMARK    1  A    between atoms: _1  and  _3
REMARK    2  A    between atoms: _3  and  _4
REMARK    3  A    between atoms: _7  and  _9
REMARK    4  A    between atoms: _9  and  _10
REMARK    5  A    between atoms: _9  and  _12
REMARK    6  A    between atoms: _12  and  _13
REMARK    7  A    between atoms: _13  and  _14
REMARK    8  A    between atoms: _14  and  _15
REMARK    9  A    between atoms: _15  and  _16
REMARK   10  A    between atoms: _20  and  _22
REMARK   11  A    between atoms: _22  and  _23
REMARK   12  A    between atoms: _22  and  _25
REMARK   13  A    between atoms: _25  and  _26
REMARK   14  A    between atoms: _32  and  _34
REMARK   15  A    between atoms: _34  and  _35
REMARK   16  A    between atoms: _34  and  _37
REMARK   17  A    between atoms: _37  and  _38
REMARK   18  A    between atoms: _38  and  _39
REMARK   19  A    between atoms: _39  and  _40
REMARK   20  A    between atoms: _49  and  _51
REMARK   21  A    between atoms: _51  and  _52
REMARK   22  A    between atoms: _51  and  _54
REMARK   23  A    between atoms: _54  and  _55
REMARK   24  A    between atoms: _55  and  _56
REMARK   25  A    between atoms: _61  and  _63
REMARK   26  A    between atoms: _63  and  _64
REMARK   27  A    between atoms: _63  and  _66
REMARK   28  A    between atoms: _66  and  _67
REMARK   29  A    between atoms: _72  and  _74
REMARK   30  A    between atoms: _74  and  _75
REMARK   31  A    between atoms: _74  and  _77
REMARK   32  A    between atoms: _77  and  _78
REMARK   33  A    between atoms: _78  and  _79
REMARK   34  A    between atoms: _81  and  _83
REMARK   35  A    between atoms: _83  and  _84
REMARK   36  A    between atoms: _83  and  _86
REMARK   37  A    between atoms: _86  and  _87
REMARK   38  A    between atoms: _90  and  _92
REMARK   39  A    between atoms: _92  and  _93
REMARK   40  A    between atoms: _92  and  _95
REMARK   41  A    between atoms: _95  and  _96
REMARK   42  A    between atoms: _96  and  _97
REMARK   43  A    between atoms: _97  and  _98
REMARK   44  A    between atoms: _107  and  _109
REMARK   45  A    between atoms: _109  and  _110
REMARK   46  A    between atoms: _109  and  _112
REMARK   47  A    between atoms: _112  and  _113
REMARK   48  A    between atoms: _113  and  _114
REMARK   49  A    between atoms: _114  and  _115
REMARK   50  A    between atoms: _115  and  _116
REMARK   51  A    between atoms: _121  and  _122
REMARK   52  A    between atoms: _127  and  _129
REMARK   53  A    between atoms: _129  and  _130
REMARK   54  A    between atoms: _129  and  _132
REMARK   55  A    between atoms: _135  and  _137
REMARK   56  A    between atoms: _137  and  _138
REMARK   57  A    between atoms: _137  and  _140
REMARK   58  A    between atoms: _140  and  _141
REMARK   59  A    between atoms: _146  and  _148
REMARK   60  A    between atoms: _148  and  _149
REMARK   61  A    between atoms: _148  and  _151
REMARK   62  A    between atoms: _151  and  _152
REMARK   63  A    between atoms: _155  and  _157
REMARK   64  A    between atoms: _157  and  _158
REMARK   65  A    between atoms: _157  and  _160
REMARK   66  A    between atoms: _160  and  _161
REMARK   67  A    between atoms: _167  and  _169
REMARK   68  A    between atoms: _169  and  _170
REMARK   69  A    between atoms: _169  and  _172
REMARK   70  A    between atoms: _172  and  _173
REMARK   71  A    between atoms: _173  and  _174
REMARK   72  A    between atoms: _174  and  _175
REMARK   73  A    between atoms: _175  and  _176
REMARK   74  A    between atoms: _180  and  _182
REMARK   75  A    between atoms: _182  and  _183
REMARK   76  A    between atoms: _182  and  _185
REMARK   77  A    between atoms: _185  and  _186
REMARK   78  A    between atoms: _191  and  _193
REMARK   79  A    between atoms: _193  and  _194
REMARK   80  A    between atoms: _193  and  _196
REMARK   81  A    between atoms: _196  and  _197
REMARK   82  A    between atoms: _200  and  _202
REMARK   83  A    between atoms: _202  and  _203
REMARK   84  A    between atoms: _202  and  _205
REMARK   85  A    between atoms: _205  and  _206
REMARK   86  A    between atoms: _209  and  _211
REMARK   87  A    between atoms: _211  and  _212
REMARK   88  A    between atoms: _211  and  _214
REMARK   89  A    between atoms: _214  and  _215
REMARK   90  A    between atoms: _218  and  _220
REMARK   91  A    between atoms: _220  and  _221
REMARK   92  A    between atoms: _220  and  _223
REMARK   93  A    between atoms: _225  and  _227
REMARK   94  A    between atoms: _227  and  _228
REMARK   95  A    between atoms: _227  and  _230
REMARK   96  A    between atoms: _230  and  _231
REMARK   97  A    between atoms: _231  and  _232
REMARK   98  A    between atoms: _232  and  _233
REMARK   99  A    between atoms: _233  and  _234
REMARK  100  A    between atoms: _238  and  _240
REMARK  101  A    between atoms: _240  and  _241
REMARK  102  A    between atoms: _240  and  _243
REMARK  103  A    between atoms: _243  and  _244
REMARK  104  A    between atoms: _247  and  _249
REMARK  105  A    between atoms: _249  and  _250
REMARK  106  A    between atoms: _249  and  _252
REMARK  107  A    between atoms: _252  and  _253
REMARK  108  A    between atoms: _256  and  _258
REMARK  109  A    between atoms: _258  and  _259
REMARK  110  A    between atoms: _258  and  _261
REMARK  111  A    between atoms: _264  and  _266
REMARK  112  A    between atoms: _266  and  _267
REMARK  113  A    between atoms: _271  and  _272
REMARK  114  A    between atoms: _277  and  _279
REMARK  115  A    between atoms: _279  and  _280
REMARK  116  A    between atoms: _279  and  _282
REMARK  117  A    between atoms: _285  and  _287
REMARK  118  A    between atoms: _287  and  _288
REMARK  119  A    between atoms: _287  and  _290
REMARK  120  A    between atoms: _290  and  _291
REMARK  121  A    between atoms: _296  and  _298
REMARK  122  A    between atoms: _298  and  _299
REMARK  123  A    between atoms: _298  and  _301
REMARK  124  A    between atoms: _301  and  _302
REMARK  125  A    between atoms: _308  and  _310
REMARK  126  A    between atoms: _310  and  _311
REMARK  127  A    between atoms: _310  and  _313
REMARK  128  A    between atoms: _313  and  _314
REMARK  129  A    between atoms: _317  and  _319
REMARK  130  A    between atoms: _319  and  _320
REMARK  131  A    between atoms: _323  and  _325
REMARK  132  A    between atoms: _325  and  _326
REMARK  133  A    between atoms: _325  and  _328
REMARK  134  A    between atoms: _328  and  _329
REMARK  135  A    between atoms: _331  and  _333
REMARK  136  A    between atoms: _333  and  _334
REMARK  137  A    between atoms: _333  and  _336
REMARK                            x       y       z     vdW  Elec       q    Type
REMARK                         _______ _______ _______ _____ _____    ______ ____
ROOT
ATOM      1  O   HOH     1      34.798   8.177  14.089  0.00  0.00    +0.000 OA
ENDROOT
TORSDOF 0
REMARK  Name = ../refined-set-2016/1w4q/1w4q_pocket.pdb
REMARK  137 active torsions:
REMARK  status: ('A' for Active; 'I' for Inactive)
REMARK    1  A    between atoms: _1  and  _3
REMARK    2  A    between atoms: _3  and  _4
REMARK    3  A    between atoms: _7  and  _9
REMARK    4  A    between atoms: _9  and  _10
REMARK    5  A    between atoms: _9  and  _12
REMARK    6  A    between atoms: _12  and  _13
REMARK    7  A    between atoms: _13  and  _14
REMARK    8  A    between atoms: _14  and  _15
REMARK    9  A    between atoms: _15  and  _16
REMARK   10  A    between atoms: _20  and  _22
REMARK   11  A    between atoms: _22  and  _23
REMARK   12  A    between atoms: _22  and  _25
REMARK   13  A    between atoms: _25  and  _26
REMARK   14  A    between atoms: _32  and  _34
REMARK   15  A    between atoms: _34  and  _35
REMARK   16  A    between atoms: _34  and  _37
REMARK   17  A    between atoms: _37  and  _38
REMARK   18  A    between atoms: _38  and  _39
REMARK   19  A    between atoms: _39  and  _40
REMARK   20  A    between atoms: _49  and  _51
REMARK   21  A    between atoms: _51  and  _52
REMARK   22  A    between atoms: _51  and  _54
REMARK   23  A    between atoms: _54  and  _55
REMARK   24  A    between atoms: _55  and  _56
REMARK   25  A    between atoms: _61  and  _63
REMARK   26  A    between atoms: _63  and  _64
REMARK   27  A    between atoms: _63  and  _66
REMARK   28  A    between atoms: _66  and  _67
REMARK   29  A    between atoms: _72  and  _74
REMARK   30  A    between atoms: _74  and  _75
REMARK   31  A    between atoms: _74  and  _77
REMARK   32  A    between atoms: _77  and  _78
REMARK   33  A    between atoms: _78  and  _79
REMARK   34  A    between atoms: _81  and  _83
REMARK   35  A    between atoms: _83  and  _84
REMARK   36  A    between atoms: _83  and  _86
REMARK   37  A    between atoms: _86  and  _87
REMARK   38  A    between atoms: _90  and  _92
REMARK   39  A    between atoms: _92  and  _93
REMARK   40  A    between atoms: _92  and  _95
REMARK   41  A    between atoms: _95  and  _96
REMARK   42  A    between atoms: _96  and  _97
REMARK   43  A    between atoms: _97  and  _98
REMARK   44  A    between atoms: _107  and  _109
REMARK   45  A    between atoms: _109  and  _110
REMARK   46  A    between atoms: _109  and  _112
REMARK   47  A    between atoms: _112  and  _113
REMARK   48  A    between atoms: _113  and  _114
REMARK   49  A    between atoms: _114  and  _115
REMARK   50  A    between atoms: _115  and  _116
REMARK   51  A    between atoms: _121  and  _122
REMARK   52  A    between atoms: _127  and  _129
REMARK   53  A    between atoms: _129  and  _130
REMARK   54  A    between atoms: _129  and  _132
REMARK   55  A    between atoms: _135  and  _137
REMARK   56  A    between atoms: _137  and  _138
REMARK   57  A    between atoms: _137  and  _140
REMARK   58  A    between atoms: _140  and  _141
REMARK   59  A    between atoms: _146  and  _148
REMARK   60  A    between atoms: _148  and  _149
REMARK   61  A    between atoms: _148  and  _151
REMARK   62  A    between atoms: _151  and  _152
REMARK   63  A    between atoms: _155  and  _157
REMARK   64  A    between atoms: _157  and  _158
REMARK   65  A    between atoms: _157  and  _160
REMARK   66  A    between atoms: _160  and  _161
REMARK   67  A    between atoms: _167  and  _169
REMARK   68  A    between atoms: _169  and  _170
REMARK   69  A    between atoms: _169  and  _172
REMARK   70  A    between atoms: _172  and  _173
REMARK   71  A    between atoms: _173  and  _174
REMARK   72  A    between atoms: _174  and  _175
REMARK   73  A    between atoms: _175  and  _176
REMARK   74  A    between atoms: _180  and  _182
REMARK   75  A    between atoms: _182  and  _183
REMARK   76  A    between atoms: _182  and  _185
REMARK   77  A    between atoms: _185  and  _186
REMARK   78  A    between atoms: _191  and  _193
REMARK   79  A    between atoms: _193  and  _194
REMARK   80  A    between atoms: _193  and  _196
REMARK   81  A    between atoms: _196  and  _197
REMARK   82  A    between atoms: _200  and  _202
REMARK   83  A    between atoms: _202  and  _203
REMARK   84  A    between atoms: _202  and  _205
REMARK   85  A    between atoms: _205  and  _206
REMARK   86  A    between atoms: _209  and  _211
REMARK   87  A    between atoms: _211  and  _212
REMARK   88  A    between atoms: _211  and  _214
REMARK   89  A    between atoms: _214  and  _215
REMARK   90  A    between atoms: _218  and  _220
REMARK   91  A    between atoms: _220  and  _221
REMARK   92  A    between atoms: _220  and  _223
REMARK   93  A    between atoms: _225  and  _227
REMARK   94  A    between atoms: _227  and  _228
REMARK   95  A    between atoms: _227  and  _230
REMARK   96  A    between atoms: _230  and  _231
REMARK   97  A    between atoms: _231  and  _232
REMARK   98  A    between atoms: _232  and  _233
REMARK   99  A    between atoms: _233  and  _234
REMARK  100  A    between atoms: _238  and  _240
REMARK  101  A    between atoms: _240  and  _241
REMARK  102  A    between atoms: _240  and  _243
REMARK  103  A    between atoms: _243  and  _244
REMARK  104  A    between atoms: _247  and  _249
REMARK  105  A    between atoms: _249  and  _250
REMARK  106  A    between atoms: _249  and  _252
REMARK  107  A    between atoms: _252  and  _253
REMARK  108  A    between atoms: _256  and  _258
REMARK  109  A    between atoms: _258  and  _259
REMARK  110  A    between atoms: _258  and  _261
REMARK  111  A    between atoms: _264  and  _266
REMARK  112  A    between atoms: _266  and  _267
REMARK  113  A    between atoms: _271  and  _272
REMARK  114  A    between atoms: _277  and  _279
REMARK  115  A    between atoms: _279  and  _280
REMARK  116  A    between atoms: _279  and  _282
REMARK  117  A    between atoms: _285  and  _287
REMARK  118  A    between atoms: _287  and  _288
REMARK  119  A    between atoms: _287  and  _290
REMARK  120  A    between atoms: _290  and  _291
REMARK  121  A    between atoms: _296  and  _298
REMARK  122  A    between atoms: _298  and  _299
REMARK  123  A    between atoms: _298  and  _301
REMARK  124  A    between atoms: _301  and  _302
REMARK  125  A    between atoms: _308  and  _310
REMARK  126  A    between atoms: _310  and  _311
REMARK  127  A    between atoms: _310  and  _313
REMARK  128  A    between atoms: _313  and  _314
REMARK  129  A    between atoms: _317  and  _319
REMARK  130  A    between atoms: _319  and  _320
REMARK  131  A    between atoms: _323  and  _325
REMARK  132  A    between atoms: _325  and  _326
REMARK  133  A    between atoms: _325  and  _328
REMARK  134  A    between atoms: _328  and  _329
REMARK  135  A    between atoms: _331  and  _333
REMARK  136  A    between atoms: _333  and  _334
REMARK  137  A    between atoms: _333  and  _336
REMARK                            x       y       z     vdW  Elec       q    Type
REMARK                         _______ _______ _______ _____ _____    ______ ____
ROOT
ATOM      1  O   HOH     1      36.329   1.716  21.479  0.00  0.00    +0.000 OA
ENDROOT
TORSDOF 0
REMARK  Name = ../refined-set-2016/1w4q/1w4q_pocket.pdb
REMARK  137 active torsions:
REMARK  status: ('A' for Active; 'I' for Inactive)
REMARK    1  A    between atoms: _1  and  _3
REMARK    2  A    between atoms: _3  and  _4
REMARK    3  A    between atoms: _7  and  _9
REMARK    4  A    between atoms: _9  and  _10
REMARK    5  A    between atoms: _9  and  _12
REMARK    6  A    between atoms: _12  and  _13
REMARK    7  A    between atoms: _13  and  _14
REMARK    8  A    between atoms: _14  and  _15
REMARK    9  A    between atoms: _15  and  _16
REMARK   10  A    between atoms: _20  and  _22
REMARK   11  A    between atoms: _22  and  _23
REMARK   12  A    between atoms: _22  and  _25
REMARK   13  A    between atoms: _25  and  _26
REMARK   14  A    between atoms: _32  and  _34
REMARK   15  A    between atoms: _34  and  _35
REMARK   16  A    between atoms: _34  and  _37
REMARK   17  A    between atoms: _37  and  _38
REMARK   18  A    between atoms: _38  and  _39
REMARK   19  A    between atoms: _39  and  _40
REMARK   20  A    between atoms: _49  and  _51
REMARK   21  A    between atoms: _51  and  _52
REMARK   22  A    between atoms: _51  and  _54
REMARK   23  A    between atoms: _54  and  _55
REMARK   24  A    between atoms: _55  and  _56
REMARK   25  A    between atoms: _61  and  _63
REMARK   26  A    between atoms: _63  and  _64
REMARK   27  A    between atoms: _63  and  _66
REMARK   28  A    between atoms: _66  and  _67
REMARK   29  A    between atoms: _72  and  _74
REMARK   30  A    between atoms: _74  and  _75
REMARK   31  A    between atoms: _74  and  _77
REMARK   32  A    between atoms: _77  and  _78
REMARK   33  A    between atoms: _78  and  _79
REMARK   34  A    between atoms: _81  and  _83
REMARK   35  A    between atoms: _83  and  _84
REMARK   36  A    between atoms: _83  and  _86
REMARK   37  A    between atoms: _86  and  _87
REMARK   38  A    between atoms: _90  and  _92
REMARK   39  A    between atoms: _92  and  _93
REMARK   40  A    between atoms: _92  and  _95
REMARK   41  A    between atoms: _95  and  _96
REMARK   42  A    between atoms: _96  and  _97
REMARK   43  A    between atoms: _97  and  _98
REMARK   44  A    between atoms: _107  and  _109
REMARK   45  A    between atoms: _109  and  _110
REMARK   46  A    between atoms: _109  and  _112
REMARK   47  A    between atoms: _112  and  _113
REMARK   48  A    between atoms: _113  and  _114
REMARK   49  A    between atoms: _114  and  _115
REMARK   50  A    between atoms: _115  and  _116
REMARK   51  A    between atoms: _121  and  _122
REMARK   52  A    between atoms: _127  and  _129
REMARK   53  A    between atoms: _129  and  _130
REMARK   54  A    between atoms: _129  and  _132
REMARK   55  A    between atoms: _135  and  _137
REMARK   56  A    between atoms: _137  and  _138
REMARK   57  A    between atoms: _137  and  _140
REMARK   58  A    between atoms: _140  and  _141
REMARK   59  A    between atoms: _146  and  _148
REMARK   60  A    between atoms: _148  and  _149
REMARK   61  A    between atoms: _148  and  _151
REMARK   62  A    between atoms: _151  and  _152
REMARK   63  A    between atoms: _155  and  _157
REMARK   64  A    between atoms: _157  and  _158
REMARK   65  A    between atoms: _157  and  _160
REMARK   66  A    between atoms: _160  and  _161
REMARK   67  A    between atoms: _167  and  _169
REMARK   68  A    between atoms: _169  and  _170
REMARK   69  A    between atoms: _169  and  _172
REMARK   70  A    between atoms: _172  and  _173
REMARK   71  A    between atoms: _173  and  _174
REMARK   72  A    between atoms: _174  and  _175
REMARK   73  A    between atoms: _175  and  _176
REMARK   74  A    between atoms: _180  and  _182
REMARK   75  A    between atoms: _182  and  _183
REMARK   76  A    between atoms: _182  and  _185
REMARK   77  A    between atoms: _185  and  _186
REMARK   78  A    between atoms: _191  and  _193
REMARK   79  A    between atoms: _193  and  _194
REMARK   80  A    between atoms: _193  and  _196
REMARK   81  A    between atoms: _196  and  _197
REMARK   82  A    between atoms: _200  and  _202
REMARK   83  A    between atoms: _202  and  _203
REMARK   84  A    between atoms: _202  and  _205
REMARK   85  A    between atoms: _205  and  _206
REMARK   86  A    between atoms: _209  and  _211
REMARK   87  A    between atoms: _211  and  _212
REMARK   88  A    between atoms: _211  and  _214
REMARK   89  A    between atoms: _214  and  _215
REMARK   90  A    between atoms: _218  and  _220
REMARK   91  A    between atoms: _220  and  _221
REMARK   92  A    between atoms: _220  and  _223
REMARK   93  A    between atoms: _225  and  _227
REMARK   94  A    between atoms: _227  and  _228
REMARK   95  A    between atoms: _227  and  _230
REMARK   96  A    between atoms: _230  and  _231
REMARK   97  A    between atoms: _231  and  _232
REMARK   98  A    between atoms: _232  and  _233
REMARK   99  A    between atoms: _233  and  _234
REMARK  100  A    between atoms: _238  and  _240
REMARK  101  A    between atoms: _240  and  _241
REMARK  102  A    between atoms: _240  and  _243
REMARK  103  A    between atoms: _243  and  _244
REMARK  104  A    between atoms: _247  and  _249
REMARK  105  A    between atoms: _249  and  _250
REMARK  106  A    between atoms: _249  and  _252
REMARK  107  A    between atoms: _252  and  _253
REMARK  108  A    between atoms: _256  and  _258
REMARK  109  A    between atoms: _258  and  _259
REMARK  110  A    between atoms: _258  and  _261
REMARK  111  A    between atoms: _264  and  _266
REMARK  112  A    between atoms: _266  and  _267
REMARK  113  A    between atoms: _271  and  _272
REMARK  114  A    between atoms: _277  and  _279
REMARK  115  A    between atoms: _279  and  _280
REMARK  116  A    between atoms: _279  and  _282
REMARK  117  A    between atoms: _285  and  _287
REMARK  118  A    between atoms: _287  and  _288
REMARK  119  A    between atoms: _287  and  _290
REMARK  120  A    between atoms: _290  and  _291
REMARK  121  A    between atoms: _296  and  _298
REMARK  122  A    between atoms: _298  and  _299
REMARK  123  A    between atoms: _298  and  _301
REMARK  124  A    between atoms: _301  and  _302
REMARK  125  A    between atoms: _308  and  _310
REMARK  126  A    between atoms: _310  and  _311
REMARK  127  A    between atoms: _310  and  _313
REMARK  128  A    between atoms: _313  and  _314
REMARK  129  A    between atoms: _317  and  _319
REMARK  130  A    between atoms: _319  and  _320
REMARK  131  A    between atoms: _323  and  _325
REMARK  132  A    between atoms: _325  and  _326
REMARK  133  A    between atoms: _325  and  _328
REMARK  134  A    between atoms: _328  and  _329
REMARK  135  A    between atoms: _331  and  _333
REMARK  136  A    between atoms: _333  and  _334
REMARK  137  A    between atoms: _333  and  _336
REMARK                            x       y       z     vdW  Elec       q    Type
REMARK                         _______ _______ _______ _____ _____    ______ ____
ROOT
ATOM      1  O   HOH     1      39.551   3.157  18.377  0.00  0.00    +0.000 OA
ENDROOT
TORSDOF 0
REMARK  Name = ../refined-set-2016/1w4q/1w4q_pocket.pdb
REMARK  137 active torsions:
REMARK  status: ('A' for Active; 'I' for Inactive)
REMARK    1  A    between atoms: _1  and  _3
REMARK    2  A    between atoms: _3  and  _4
REMARK    3  A    between atoms: _7  and  _9
REMARK    4  A    between atoms: _9  and  _10
REMARK    5  A    between atoms: _9  and  _12
REMARK    6  A    between atoms: _12  and  _13
REMARK    7  A    between atoms: _13  and  _14
REMARK    8  A    between atoms: _14  and  _15
REMARK    9  A    between atoms: _15  and  _16
REMARK   10  A    between atoms: _20  and  _22
REMARK   11  A    between atoms: _22  and  _23
REMARK   12  A    between atoms: _22  and  _25
REMARK   13  A    between atoms: _25  and  _26
REMARK   14  A    between atoms: _32  and  _34
REMARK   15  A    between atoms: _34  and  _35
REMARK   16  A    between atoms: _34  and  _37
REMARK   17  A    between atoms: _37  and  _38
REMARK   18  A    between atoms: _38  and  _39
REMARK   19  A    between atoms: _39  and  _40
REMARK   20  A    between atoms: _49  and  _51
REMARK   21  A    between atoms: _51  and  _52
REMARK   22  A    between atoms: _51  and  _54
REMARK   23  A    between atoms: _54  and  _55
REMARK   24  A    between atoms: _55  and  _56
REMARK   25  A    between atoms: _61  and  _63
REMARK   26  A    between atoms: _63  and  _64
REMARK   27  A    between atoms: _63  and  _66
REMARK   28  A    between atoms: _66  and  _67
REMARK   29  A    between atoms: _72  and  _74
REMARK   30  A    between atoms: _74  and  _75
REMARK   31  A    between atoms: _74  and  _77
REMARK   32  A    between atoms: _77  and  _78
REMARK   33  A    between atoms: _78  and  _79
REMARK   34  A    between atoms: _81  and  _83
REMARK   35  A    between atoms: _83  and  _84
REMARK   36  A    between atoms: _83  and  _86
REMARK   37  A    between atoms: _86  and  _87
REMARK   38  A    between atoms: _90  and  _92
REMARK   39  A    between atoms: _92  and  _93
REMARK   40  A    between atoms: _92  and  _95
REMARK   41  A    between atoms: _95  and  _96
REMARK   42  A    between atoms: _96  and  _97
REMARK   43  A    between atoms: _97  and  _98
REMARK   44  A    between atoms: _107  and  _109
REMARK   45  A    between atoms: _109  and  _110
REMARK   46  A    between atoms: _109  and  _112
REMARK   47  A    between atoms: _112  and  _113
REMARK   48  A    between atoms: _113  and  _114
REMARK   49  A    between atoms: _114  and  _115
REMARK   50  A    between atoms: _115  and  _116
REMARK   51  A    between atoms: _121  and  _122
REMARK   52  A    between atoms: _127  and  _129
REMARK   53  A    between atoms: _129  and  _130
REMARK   54  A    between atoms: _129  and  _132
REMARK   55  A    between atoms: _135  and  _137
REMARK   56  A    between atoms: _137  and  _138
REMARK   57  A    between atoms: _137  and  _140
REMARK   58  A    between atoms: _140  and  _141
REMARK   59  A    between atoms: _146  and  _148
REMARK   60  A    between atoms: _148  and  _149
REMARK   61  A    between atoms: _148  and  _151
REMARK   62  A    between atoms: _151  and  _152
REMARK   63  A    between atoms: _155  and  _157
REMARK   64  A    between atoms: _157  and  _158
REMARK   65  A    between atoms: _157  and  _160
REMARK   66  A    between atoms: _160  and  _161
REMARK   67  A    between atoms: _167  and  _169
REMARK   68  A    between atoms: _169  and  _170
REMARK   69  A    between atoms: _169  and  _172
REMARK   70  A    between atoms: _172  and  _173
REMARK   71  A    between atoms: _173  and  _174
REMARK   72  A    between atoms: _174  and  _175
REMARK   73  A    between atoms: _175  and  _176
REMARK   74  A    between atoms: _180  and  _182
REMARK   75  A    between atoms: _182  and  _183
REMARK   76  A    between atoms: _182  and  _185
REMARK   77  A    between atoms: _185  and  _186
REMARK   78  A    between atoms: _191  and  _193
REMARK   79  A    between atoms: _193  and  _194
REMARK   80  A    between atoms: _193  and  _196
REMARK   81  A    between atoms: _196  and  _197
REMARK   82  A    between atoms: _200  and  _202
REMARK   83  A    between atoms: _202  and  _203
REMARK   84  A    between atoms: _202  and  _205
REMARK   85  A    between atoms: _205  and  _206
REMARK   86  A    between atoms: _209  and  _211
REMARK   87  A    between atoms: _211  and  _212
REMARK   88  A    between atoms: _211  and  _214
REMARK   89  A    between atoms: _214  and  _215
REMARK   90  A    between atoms: _218  and  _220
REMARK   91  A    between atoms: _220  and  _221
REMARK   92  A    between atoms: _220  and  _223
REMARK   93  A    between atoms: _225  and  _227
REMARK   94  A    between atoms: _227  and  _228
REMARK   95  A    between atoms: _227  and  _230
REMARK   96  A    between atoms: _230  and  _231
REMARK   97  A    between atoms: _231  and  _232
REMARK   98  A    between atoms: _232  and  _233
REMARK   99  A    between atoms: _233  and  _234
REMARK  100  A    between atoms: _238  and  _240
REMARK  101  A    between atoms: _240  and  _241
REMARK  102  A    between atoms: _240  and  _243
REMARK  103  A    between atoms: _243  and  _244
REMARK  104  A    between atoms: _247  and  _249
REMARK  105  A    between atoms: _249  and  _250
REMARK  106  A    between atoms: _249  and  _252
REMARK  107  A    between atoms: _252  and  _253
REMARK  108  A    between atoms: _256  and  _258
REMARK  109  A    between atoms: _258  and  _259
REMARK  110  A    between atoms: _258  and  _261
REMARK  111  A    between atoms: _264  and  _266
REMARK  112  A    between atoms: _266  and  _267
REMARK  113  A    between atoms: _271  and  _272
REMARK  114  A    between atoms: _277  and  _279
REMARK  115  A    between atoms: _279  and  _280
REMARK  116  A    between atoms: _279  and  _282
REMARK  117  A    between atoms: _285  and  _287
REMARK  118  A    between atoms: _287  and  _288
REMARK  119  A    between atoms: _287  and  _290
REMARK  120  A    between atoms: _290  and  _291
REMARK  121  A    between atoms: _296  and  _298
REMARK  122  A    between atoms: _298  and  _299
REMARK  123  A    between atoms: _298  and  _301
REMARK  124  A    between atoms: _301  and  _302
REMARK  125  A    between atoms: _308  and  _310
REMARK  126  A    between atoms: _310  and  _311
REMARK  127  A    between atoms: _310  and  _313
REMARK  128  A    between atoms: _313  and  _314
REMARK  129  A    between atoms: _317  and  _319
REMARK  130  A    between atoms: _319  and  _320
REMARK  131  A    between atoms: _323  and  _325
REMARK  132  A    between atoms: _325  and  _326
REMARK  133  A    between atoms: _325  and  _328
REMARK  134  A    between atoms: _328  and  _329
REMARK  135  A    between atoms: _331  and  _333
REMARK  136  A    between atoms: _333  and  _334
REMARK  137  A    between atoms: _333  and  _336
REMARK                            x       y       z     vdW  Elec       q    Type
REMARK                         _______ _______ _______ _____ _____    ______ ____
ROOT
ATOM      1  O   HOH     1      37.677  -0.618  21.530  0.00  0.00    +0.000 OA
ENDROOT
TORSDOF 0
REMARK  Name = ../refined-set-2016/1w4q/1w4q_pocket.pdb
REMARK  137 active torsions:
REMARK  status: ('A' for Active; 'I' for Inactive)
REMARK    1  A    between atoms: _1  and  _3
REMARK    2  A    between atoms: _3  and  _4
REMARK    3  A    between atoms: _7  and  _9
REMARK    4  A    between atoms: _9  and  _10
REMARK    5  A    between atoms: _9  and  _12
REMARK    6  A    between atoms: _12  and  _13
REMARK    7  A    between atoms: _13  and  _14
REMARK    8  A    between atoms: _14  and  _15
REMARK    9  A    between atoms: _15  and  _16
REMARK   10  A    between atoms: _20  and  _22
REMARK   11  A    between atoms: _22  and  _23
REMARK   12  A    between atoms: _22  and  _25
REMARK   13  A    between atoms: _25  and  _26
REMARK   14  A    between atoms: _32  and  _34
REMARK   15  A    between atoms: _34  and  _35
REMARK   16  A    between atoms: _34  and  _37
REMARK   17  A    between atoms: _37  and  _38
REMARK   18  A    between atoms: _38  and  _39
REMARK   19  A    between atoms: _39  and  _40
REMARK   20  A    between atoms: _49  and  _51
REMARK   21  A    between atoms: _51  and  _52
REMARK   22  A    between atoms: _51  and  _54
REMARK   23  A    between atoms: _54  and  _55
REMARK   24  A    between atoms: _55  and  _56
REMARK   25  A    between atoms: _61  and  _63
REMARK   26  A    between atoms: _63  and  _64
REMARK   27  A    between atoms: _63  and  _66
REMARK   28  A    between atoms: _66  and  _67
REMARK   29  A    between atoms: _72  and  _74
REMARK   30  A    between atoms: _74  and  _75
REMARK   31  A    between atoms: _74  and  _77
REMARK   32  A    between atoms: _77  and  _78
REMARK   33  A    between atoms: _78  and  _79
REMARK   34  A    between atoms: _81  and  _83
REMARK   35  A    between atoms: _83  and  _84
REMARK   36  A    between atoms: _83  and  _86
REMARK   37  A    between atoms: _86  and  _87
REMARK   38  A    between atoms: _90  and  _92
REMARK   39  A    between atoms: _92  and  _93
REMARK   40  A    between atoms: _92  and  _95
REMARK   41  A    between atoms: _95  and  _96
REMARK   42  A    between atoms: _96  and  _97
REMARK   43  A    between atoms: _97  and  _98
REMARK   44  A    between atoms: _107  and  _109
REMARK   45  A    between atoms: _109  and  _110
REMARK   46  A    between atoms: _109  and  _112
REMARK   47  A    between atoms: _112  and  _113
REMARK   48  A    between atoms: _113  and  _114
REMARK   49  A    between atoms: _114  and  _115
REMARK   50  A    between atoms: _115  and  _116
REMARK   51  A    between atoms: _121  and  _122
REMARK   52  A    between atoms: _127  and  _129
REMARK   53  A    between atoms: _129  and  _130
REMARK   54  A    between atoms: _129  and  _132
REMARK   55  A    between atoms: _135  and  _137
REMARK   56  A    between atoms: _137  and  _138
REMARK   57  A    between atoms: _137  and  _140
REMARK   58  A    between atoms: _140  and  _141
REMARK   59  A    between atoms: _146  and  _148
REMARK   60  A    between atoms: _148  and  _149
REMARK   61  A    between atoms: _148  and  _151
REMARK   62  A    between atoms: _151  and  _152
REMARK   63  A    between atoms: _155  and  _157
REMARK   64  A    between atoms: _157  and  _158
REMARK   65  A    between atoms: _157  and  _160
REMARK   66  A    between atoms: _160  and  _161
REMARK   67  A    between atoms: _167  and  _169
REMARK   68  A    between atoms: _169  and  _170
REMARK   69  A    between atoms: _169  and  _172
REMARK   70  A    between atoms: _172  and  _173
REMARK   71  A    between atoms: _173  and  _174
REMARK   72  A    between atoms: _174  and  _175
REMARK   73  A    between atoms: _175  and  _176
REMARK   74  A    between atoms: _180  and  _182
REMARK   75  A    between atoms: _182  and  _183
REMARK   76  A    between atoms: _182  and  _185
REMARK   77  A    between atoms: _185  and  _186
REMARK   78  A    between atoms: _191  and  _193
REMARK   79  A    between atoms: _193  and  _194
REMARK   80  A    between atoms: _193  and  _196
REMARK   81  A    between atoms: _196  and  _197
REMARK   82  A    between atoms: _200  and  _202
REMARK   83  A    between atoms: _202  and  _203
REMARK   84  A    between atoms: _202  and  _205
REMARK   85  A    between atoms: _205  and  _206
REMARK   86  A    between atoms: _209  and  _211
REMARK   87  A    between atoms: _211  and  _212
REMARK   88  A    between atoms: _211  and  _214
REMARK   89  A    between atoms: _214  and  _215
REMARK   90  A    between atoms: _218  and  _220
REMARK   91  A    between atoms: _220  and  _221
REMARK   92  A    between atoms: _220  and  _223
REMARK   93  A    between atoms: _225  and  _227
REMARK   94  A    between atoms: _227  and  _228
REMARK   95  A    between atoms: _227  and  _230
REMARK   96  A    between atoms: _230  and  _231
REMARK   97  A    between atoms: _231  and  _232
REMARK   98  A    between atoms: _232  and  _233
REMARK   99  A    between atoms: _233  and  _234
REMARK  100  A    between atoms: _238  and  _240
REMARK  101  A    between atoms: _240  and  _241
REMARK  102  A    between atoms: _240  and  _243
REMARK  103  A    between atoms: _243  and  _244
REMARK  104  A    between atoms: _247  and  _249
REMARK  105  A    between atoms: _249  and  _250
REMARK  106  A    between atoms: _249  and  _252
REMARK  107  A    between atoms: _252  and  _253
REMARK  108  A    between atoms: _256  and  _258
REMARK  109  A    between atoms: _258  and  _259
REMARK  110  A    between atoms: _258  and  _261
REMARK  111  A    between atoms: _264  and  _266
REMARK  112  A    between atoms: _266  and  _267
REMARK  113  A    between atoms: _271  and  _272
REMARK  114  A    between atoms: _277  and  _279
REMARK  115  A    between atoms: _279  and  _280
REMARK  116  A    between atoms: _279  and  _282
REMARK  117  A    between atoms: _285  and  _287
REMARK  118  A    between atoms: _287  and  _288
REMARK  119  A    between atoms: _287  and  _290
REMARK  120  A    between atoms: _290  and  _291
REMARK  121  A    between atoms: _296  and  _298
REMARK  122  A    between atoms: _298  and  _299
REMARK  123  A    between atoms: _298  and  _301
REMARK  124  A    between atoms: _301  and  _302
REMARK  125  A    between atoms: _308  and  _310
REMARK  126  A    between atoms: _310  and  _311
REMARK  127  A    between atoms: _310  and  _313
REMARK  128  A    between atoms: _313  and  _314
REMARK  129  A    between atoms: _317  and  _319
REMARK  130  A    between atoms: _319  and  _320
REMARK  131  A    between atoms: _323  and  _325
REMARK  132  A    between atoms: _325  and  _326
REMARK  133  A    between atoms: _325  and  _328
REMARK  134  A    between atoms: _328  and  _329
REMARK  135  A    between atoms: _331  and  _333
REMARK  136  A    between atoms: _333  and  _334
REMARK  137  A    between atoms: _333  and  _336
REMARK                            x       y       z     vdW  Elec       q    Type
REMARK                         _______ _______ _______ _____ _____    ______ ____
ROOT
ATOM      1  O   HOH     1      38.122  -2.381  17.796  0.00  0.00    +0.000 OA
ENDROOT
TORSDOF 0
REMARK  Name = ../refined-set-2016/1w4q/1w4q_pocket.pdb
REMARK  137 active torsions:
REMARK  status: ('A' for Active; 'I' for Inactive)
REMARK    1  A    between atoms: _1  and  _3
REMARK    2  A    between atoms: _3  and  _4
REMARK    3  A    between atoms: _7  and  _9
REMARK    4  A    between atoms: _9  and  _10
REMARK    5  A    between atoms: _9  and  _12
REMARK    6  A    between atoms: _12  and  _13
REMARK    7  A    between atoms: _13  and  _14
REMARK    8  A    between atoms: _14  and  _15
REMARK    9  A    between atoms: _15  and  _16
REMARK   10  A    between atoms: _20  and  _22
REMARK   11  A    between atoms: _22  and  _23
REMARK   12  A    between atoms: _22  and  _25
REMARK   13  A    between atoms: _25  and  _26
REMARK   14  A    between atoms: _32  and  _34
REMARK   15  A    between atoms: _34  and  _35
REMARK   16  A    between atoms: _34  and  _37
REMARK   17  A    between atoms: _37  and  _38
REMARK   18  A    between atoms: _38  and  _39
REMARK   19  A    between atoms: _39  and  _40
REMARK   20  A    between atoms: _49  and  _51
REMARK   21  A    between atoms: _51  and  _52
REMARK   22  A    between atoms: _51  and  _54
REMARK   23  A    between atoms: _54  and  _55
REMARK   24  A    between atoms: _55  and  _56
REMARK   25  A    between atoms: _61  and  _63
REMARK   26  A    between atoms: _63  and  _64
REMARK   27  A    between atoms: _63  and  _66
REMARK   28  A    between atoms: _66  and  _67
REMARK   29  A    between atoms: _72  and  _74
REMARK   30  A    between atoms: _74  and  _75
REMARK   31  A    between atoms: _74  and  _77
REMARK   32  A    between atoms: _77  and  _78
REMARK   33  A    between atoms: _78  and  _79
REMARK   34  A    between atoms: _81  and  _83
REMARK   35  A    between atoms: _83  and  _84
REMARK   36  A    between atoms: _83  and  _86
REMARK   37  A    between atoms: _86  and  _87
REMARK   38  A    between atoms: _90  and  _92
REMARK   39  A    between atoms: _92  and  _93
REMARK   40  A    between atoms: _92  and  _95
REMARK   41  A    between atoms: _95  and  _96
REMARK   42  A    between atoms: _96  and  _97
REMARK   43  A    between atoms: _97  and  _98
REMARK   44  A    between atoms: _107  and  _109
REMARK   45  A    between atoms: _109  and  _110
REMARK   46  A    between atoms: _109  and  _112
REMARK   47  A    between atoms: _112  and  _113
REMARK   48  A    between atoms: _113  and  _114
REMARK   49  A    between atoms: _114  and  _115
REMARK   50  A    between atoms: _115  and  _116
REMARK   51  A    between atoms: _121  and  _122
REMARK   52  A    between atoms: _127  and  _129
REMARK   53  A    between atoms: _129  and  _130
REMARK   54  A    between atoms: _129  and  _132
REMARK   55  A    between atoms: _135  and  _137
REMARK   56  A    between atoms: _137  and  _138
REMARK   57  A    between atoms: _137  and  _140
REMARK   58  A    between atoms: _140  and  _141
REMARK   59  A    between atoms: _146  and  _148
REMARK   60  A    between atoms: _148  and  _149
REMARK   61  A    between atoms: _148  and  _151
REMARK   62  A    between atoms: _151  and  _152
REMARK   63  A    between atoms: _155  and  _157
REMARK   64  A    between atoms: _157  and  _158
REMARK   65  A    between atoms: _157  and  _160
REMARK   66  A    between atoms: _160  and  _161
REMARK   67  A    between atoms: _167  and  _169
REMARK   68  A    between atoms: _169  and  _170
REMARK   69  A    between atoms: _169  and  _172
REMARK   70  A    between atoms: _172  and  _173
REMARK   71  A    between atoms: _173  and  _174
REMARK   72  A    between atoms: _174  and  _175
REMARK   73  A    between atoms: _175  and  _176
REMARK   74  A    between atoms: _180  and  _182
REMARK   75  A    between atoms: _182  and  _183
REMARK   76  A    between atoms: _182  and  _185
REMARK   77  A    between atoms: _185  and  _186
REMARK   78  A    between atoms: _191  and  _193
REMARK   79  A    between atoms: _193  and  _194
REMARK   80  A    between atoms: _193  and  _196
REMARK   81  A    between atoms: _196  and  _197
REMARK   82  A    between atoms: _200  and  _202
REMARK   83  A    between atoms: _202  and  _203
REMARK   84  A    between atoms: _202  and  _205
REMARK   85  A    between atoms: _205  and  _206
REMARK   86  A    between atoms: _209  and  _211
REMARK   87  A    between atoms: _211  and  _212
REMARK   88  A    between atoms: _211  and  _214
REMARK   89  A    between atoms: _214  and  _215
REMARK   90  A    between atoms: _218  and  _220
REMARK   91  A    between atoms: _220  and  _221
REMARK   92  A    between atoms: _220  and  _223
REMARK   93  A    between atoms: _225  and  _227
REMARK   94  A    between atoms: _227  and  _228
REMARK   95  A    between atoms: _227  and  _230
REMARK   96  A    between atoms: _230  and  _231
REMARK   97  A    between atoms: _231  and  _232
REMARK   98  A    between atoms: _232  and  _233
REMARK   99  A    between atoms: _233  and  _234
REMARK  100  A    between atoms: _238  and  _240
REMARK  101  A    between atoms: _240  and  _241
REMARK  102  A    between atoms: _240  and  _243
REMARK  103  A    between atoms: _243  and  _244
REMARK  104  A    between atoms: _247  and  _249
REMARK  105  A    between atoms: _249  and  _250
REMARK  106  A    between atoms: _249  and  _252
REMARK  107  A    between atoms: _252  and  _253
REMARK  108  A    between atoms: _256  and  _258
REMARK  109  A    between atoms: _258  and  _259
REMARK  110  A    between atoms: _258  and  _261
REMARK  111  A    between atoms: _264  and  _266
REMARK  112  A    between atoms: _266  and  _267
REMARK  113  A    between atoms: _271  and  _272
REMARK  114  A    between atoms: _277  and  _279
REMARK  115  A    between atoms: _279  and  _280
REMARK  116  A    between atoms: _279  and  _282
REMARK  117  A    between atoms: _285  and  _287
REMARK  118  A    between atoms: _287  and  _288
REMARK  119  A    between atoms: _287  and  _290
REMARK  120  A    between atoms: _290  and  _291
REMARK  121  A    between atoms: _296  and  _298
REMARK  122  A    between atoms: _298  and  _299
REMARK  123  A    between atoms: _298  and  _301
REMARK  124  A    between atoms: _301  and  _302
REMARK  125  A    between atoms: _308  and  _310
REMARK  126  A    between atoms: _310  and  _311
REMARK  127  A    between atoms: _310  and  _313
REMARK  128  A    between atoms: _313  and  _314
REMARK  129  A    between atoms: _317  and  _319
REMARK  130  A    between atoms: _319  and  _320
REMARK  131  A    between atoms: _323  and  _325
REMARK  132  A    between atoms: _325  and  _326
REMARK  133  A    between atoms: _325  and  _328
REMARK  134  A    between atoms: _328  and  _329
REMARK  135  A    between atoms: _331  and  _333
REMARK  136  A    between atoms: _333  and  _334
REMARK  137  A    between atoms: _333  and  _336
REMARK                            x       y       z     vdW  Elec       q    Type
REMARK                         _______ _______ _______ _____ _____    ______ ____
ROOT
ATOM      1  O   HOH     1      31.679  -6.557  11.693  0.00  0.00    +0.000 OA
ENDROOT
TORSDOF 0
REMARK  Name = ../refined-set-2016/1w4q/1w4q_pocket.pdb
REMARK  137 active torsions:
REMARK  status: ('A' for Active; 'I' for Inactive)
REMARK    1  A    between atoms: _1  and  _3
REMARK    2  A    between atoms: _3  and  _4
REMARK    3  A    between atoms: _7  and  _9
REMARK    4  A    between atoms: _9  and  _10
REMARK    5  A    between atoms: _9  and  _12
REMARK    6  A    between atoms: _12  and  _13
REMARK    7  A    between atoms: _13  and  _14
REMARK    8  A    between atoms: _14  and  _15
REMARK    9  A    between atoms: _15  and  _16
REMARK   10  A    between atoms: _20  and  _22
REMARK   11  A    between atoms: _22  and  _23
REMARK   12  A    between atoms: _22  and  _25
REMARK   13  A    between atoms: _25  and  _26
REMARK   14  A    between atoms: _32  and  _34
REMARK   15  A    between atoms: _34  and  _35
REMARK   16  A    between atoms: _34  and  _37
REMARK   17  A    between atoms: _37  and  _38
REMARK   18  A    between atoms: _38  and  _39
REMARK   19  A    between atoms: _39  and  _40
REMARK   20  A    between atoms: _49  and  _51
REMARK   21  A    between atoms: _51  and  _52
REMARK   22  A    between atoms: _51  and  _54
REMARK   23  A    between atoms: _54  and  _55
REMARK   24  A    between atoms: _55  and  _56
REMARK   25  A    between atoms: _61  and  _63
REMARK   26  A    between atoms: _63  and  _64
REMARK   27  A    between atoms: _63  and  _66
REMARK   28  A    between atoms: _66  and  _67
REMARK   29  A    between atoms: _72  and  _74
REMARK   30  A    between atoms: _74  and  _75
REMARK   31  A    between atoms: _74  and  _77
REMARK   32  A    between atoms: _77  and  _78
REMARK   33  A    between atoms: _78  and  _79
REMARK   34  A    between atoms: _81  and  _83
REMARK   35  A    between atoms: _83  and  _84
REMARK   36  A    between atoms: _83  and  _86
REMARK   37  A    between atoms: _86  and  _87
REMARK   38  A    between atoms: _90  and  _92
REMARK   39  A    between atoms: _92  and  _93
REMARK   40  A    between atoms: _92  and  _95
REMARK   41  A    between atoms: _95  and  _96
REMARK   42  A    between atoms: _96  and  _97
REMARK   43  A    between atoms: _97  and  _98
REMARK   44  A    between atoms: _107  and  _109
REMARK   45  A    between atoms: _109  and  _110
REMARK   46  A    between atoms: _109  and  _112
REMARK   47  A    between atoms: _112  and  _113
REMARK   48  A    between atoms: _113  and  _114
REMARK   49  A    between atoms: _114  and  _115
REMARK   50  A    between atoms: _115  and  _116
REMARK   51  A    between atoms: _121  and  _122
REMARK   52  A    between atoms: _127  and  _129
REMARK   53  A    between atoms: _129  and  _130
REMARK   54  A    between atoms: _129  and  _132
REMARK   55  A    between atoms: _135  and  _137
REMARK   56  A    between atoms: _137  and  _138
REMARK   57  A    between atoms: _137  and  _140
REMARK   58  A    between atoms: _140  and  _141
REMARK   59  A    between atoms: _146  and  _148
REMARK   60  A    between atoms: _148  and  _149
REMARK   61  A    between atoms: _148  and  _151
REMARK   62  A    between atoms: _151  and  _152
REMARK   63  A    between atoms: _155  and  _157
REMARK   64  A    between atoms: _157  and  _158
REMARK   65  A    between atoms: _157  and  _160
REMARK   66  A    between atoms: _160  and  _161
REMARK   67  A    between atoms: _167  and  _169
REMARK   68  A    between atoms: _169  and  _170
REMARK   69  A    between atoms: _169  and  _172
REMARK   70  A    between atoms: _172  and  _173
REMARK   71  A    between atoms: _173  and  _174
REMARK   72  A    between atoms: _174  and  _175
REMARK   73  A    between atoms: _175  and  _176
REMARK   74  A    between atoms: _180  and  _182
REMARK   75  A    between atoms: _182  and  _183
REMARK   76  A    between atoms: _182  and  _185
REMARK   77  A    between atoms: _185  and  _186
REMARK   78  A    between atoms: _191  and  _193
REMARK   79  A    between atoms: _193  and  _194
REMARK   80  A    between atoms: _193  and  _196
REMARK   81  A    between atoms: _196  and  _197
REMARK   82  A    between atoms: _200  and  _202
REMARK   83  A    between atoms: _202  and  _203
REMARK   84  A    between atoms: _202  and  _205
REMARK   85  A    between atoms: _205  and  _206
REMARK   86  A    between atoms: _209  and  _211
REMARK   87  A    between atoms: _211  and  _212
REMARK   88  A    between atoms: _211  and  _214
REMARK   89  A    between atoms: _214  and  _215
REMARK   90  A    between atoms: _218  and  _220
REMARK   91  A    between atoms: _220  and  _221
REMARK   92  A    between atoms: _220  and  _223
REMARK   93  A    between atoms: _225  and  _227
REMARK   94  A    between atoms: _227  and  _228
REMARK   95  A    between atoms: _227  and  _230
REMARK   96  A    between atoms: _230  and  _231
REMARK   97  A    between atoms: _231  and  _232
REMARK   98  A    between atoms: _232  and  _233
REMARK   99  A    between atoms: _233  and  _234
REMARK  100  A    between atoms: _238  and  _240
REMARK  101  A    between atoms: _240  and  _241
REMARK  102  A    between atoms: _240  and  _243
REMARK  103  A    between atoms: _243  and  _244
REMARK  104  A    between atoms: _247  and  _249
REMARK  105  A    between atoms: _249  and  _250
REMARK  106  A    between atoms: _249  and  _252
REMARK  107  A    between atoms: _252  and  _253
REMARK  108  A    between atoms: _256  and  _258
REMARK  109  A    between atoms: _258  and  _259
REMARK  110  A    between atoms: _258  and  _261
REMARK  111  A    between atoms: _264  and  _266
REMARK  112  A    between atoms: _266  and  _267
REMARK  113  A    between atoms: _271  and  _272
REMARK  114  A    between atoms: _277  and  _279
REMARK  115  A    between atoms: _279  and  _280
REMARK  116  A    between atoms: _279  and  _282
REMARK  117  A    between atoms: _285  and  _287
REMARK  118  A    between atoms: _287  and  _288
REMARK  119  A    between atoms: _287  and  _290
REMARK  120  A    between atoms: _290  and  _291
REMARK  121  A    between atoms: _296  and  _298
REMARK  122  A    between atoms: _298  and  _299
REMARK  123  A    between atoms: _298  and  _301
REMARK  124  A    between atoms: _301  and  _302
REMARK  125  A    between atoms: _308  and  _310
REMARK  126  A    between atoms: _310  and  _311
REMARK  127  A    between atoms: _310  and  _313
REMARK  128  A    between atoms: _313  and  _314
REMARK  129  A    between atoms: _317  and  _319
REMARK  130  A    between atoms: _319  and  _320
REMARK  131  A    between atoms: _323  and  _325
REMARK  132  A    between atoms: _325  and  _326
REMARK  133  A    between atoms: _325  and  _328
REMARK  134  A    between atoms: _328  and  _329
REMARK  135  A    between atoms: _331  and  _333
REMARK  136  A    between atoms: _333  and  _334
REMARK  137  A    between atoms: _333  and  _336
REMARK                            x       y       z     vdW  Elec       q    Type
REMARK                         _______ _______ _______ _____ _____    ______ ____
ROOT
ATOM      1  O   HOH     1      33.099 -10.113  17.077  0.00  0.00    +0.000 OA
ENDROOT
TORSDOF 0
REMARK  Name = ../refined-set-2016/1w4q/1w4q_pocket.pdb
REMARK  137 active torsions:
REMARK  status: ('A' for Active; 'I' for Inactive)
REMARK    1  A    between atoms: _1  and  _3
REMARK    2  A    between atoms: _3  and  _4
REMARK    3  A    between atoms: _7  and  _9
REMARK    4  A    between atoms: _9  and  _10
REMARK    5  A    between atoms: _9  and  _12
REMARK    6  A    between atoms: _12  and  _13
REMARK    7  A    between atoms: _13  and  _14
REMARK    8  A    between atoms: _14  and  _15
REMARK    9  A    between atoms: _15  and  _16
REMARK   10  A    between atoms: _20  and  _22
REMARK   11  A    between atoms: _22  and  _23
REMARK   12  A    between atoms: _22  and  _25
REMARK   13  A    between atoms: _25  and  _26
REMARK   14  A    between atoms: _32  and  _34
REMARK   15  A    between atoms: _34  and  _35
REMARK   16  A    between atoms: _34  and  _37
REMARK   17  A    between atoms: _37  and  _38
REMARK   18  A    between atoms: _38  and  _39
REMARK   19  A    between atoms: _39  and  _40
REMARK   20  A    between atoms: _49  and  _51
REMARK   21  A    between atoms: _51  and  _52
REMARK   22  A    between atoms: _51  and  _54
REMARK   23  A    between atoms: _54  and  _55
REMARK   24  A    between atoms: _55  and  _56
REMARK   25  A    between atoms: _61  and  _63
REMARK   26  A    between atoms: _63  and  _64
REMARK   27  A    between atoms: _63  and  _66
REMARK   28  A    between atoms: _66  and  _67
REMARK   29  A    between atoms: _72  and  _74
REMARK   30  A    between atoms: _74  and  _75
REMARK   31  A    between atoms: _74  and  _77
REMARK   32  A    between atoms: _77  and  _78
REMARK   33  A    between atoms: _78  and  _79
REMARK   34  A    between atoms: _81  and  _83
REMARK   35  A    between atoms: _83  and  _84
REMARK   36  A    between atoms: _83  and  _86
REMARK   37  A    between atoms: _86  and  _87
REMARK   38  A    between atoms: _90  and  _92
REMARK   39  A    between atoms: _92  and  _93
REMARK   40  A    between atoms: _92  and  _95
REMARK   41  A    between atoms: _95  and  _96
REMARK   42  A    between atoms: _96  and  _97
REMARK   43  A    between atoms: _97  and  _98
REMARK   44  A    between atoms: _107  and  _109
REMARK   45  A    between atoms: _109  and  _110
REMARK   46  A    between atoms: _109  and  _112
REMARK   47  A    between atoms: _112  and  _113
REMARK   48  A    between atoms: _113  and  _114
REMARK   49  A    between atoms: _114  and  _115
REMARK   50  A    between atoms: _115  and  _116
REMARK   51  A    between atoms: _121  and  _122
REMARK   52  A    between atoms: _127  and  _129
REMARK   53  A    between atoms: _129  and  _130
REMARK   54  A    between atoms: _129  and  _132
REMARK   55  A    between atoms: _135  and  _137
REMARK   56  A    between atoms: _137  and  _138
REMARK   57  A    between atoms: _137  and  _140
REMARK   58  A    between atoms: _140  and  _141
REMARK   59  A    between atoms: _146  and  _148
REMARK   60  A    between atoms: _148  and  _149
REMARK   61  A    between atoms: _148  and  _151
REMARK   62  A    between atoms: _151  and  _152
REMARK   63  A    between atoms: _155  and  _157
REMARK   64  A    between atoms: _157  and  _158
REMARK   65  A    between atoms: _157  and  _160
REMARK   66  A    between atoms: _160  and  _161
REMARK   67  A    between atoms: _167  and  _169
REMARK   68  A    between atoms: _169  and  _170
REMARK   69  A    between atoms: _169  and  _172
REMARK   70  A    between atoms: _172  and  _173
REMARK   71  A    between atoms: _173  and  _174
REMARK   72  A    between atoms: _174  and  _175
REMARK   73  A    between atoms: _175  and  _176
REMARK   74  A    between atoms: _180  and  _182
REMARK   75  A    between atoms: _182  and  _183
REMARK   76  A    between atoms: _182  and  _185
REMARK   77  A    between atoms: _185  and  _186
REMARK   78  A    between atoms: _191  and  _193
REMARK   79  A    between atoms: _193  and  _194
REMARK   80  A    between atoms: _193  and  _196
REMARK   81  A    between atoms: _196  and  _197
REMARK   82  A    between atoms: _200  and  _202
REMARK   83  A    between atoms: _202  and  _203
REMARK   84  A    between atoms: _202  and  _205
REMARK   85  A    between atoms: _205  and  _206
REMARK   86  A    between atoms: _209  and  _211
REMARK   87  A    between atoms: _211  and  _212
REMARK   88  A    between atoms: _211  and  _214
REMARK   89  A    between atoms: _214  and  _215
REMARK   90  A    between atoms: _218  and  _220
REMARK   91  A    between atoms: _220  and  _221
REMARK   92  A    between atoms: _220  and  _223
REMARK   93  A    between atoms: _225  and  _227
REMARK   94  A    between atoms: _227  and  _228
REMARK   95  A    between atoms: _227  and  _230
REMARK   96  A    between atoms: _230  and  _231
REMARK   97  A    between atoms: _231  and  _232
REMARK   98  A    between atoms: _232  and  _233
REMARK   99  A    between atoms: _233  and  _234
REMARK  100  A    between atoms: _238  and  _240
REMARK  101  A    between atoms: _240  and  _241
REMARK  102  A    between atoms: _240  and  _243
REMARK  103  A    between atoms: _243  and  _244
REMARK  104  A    between atoms: _247  and  _249
REMARK  105  A    between atoms: _249  and  _250
REMARK  106  A    between atoms: _249  and  _252
REMARK  107  A    between atoms: _252  and  _253
REMARK  108  A    between atoms: _256  and  _258
REMARK  109  A    between atoms: _258  and  _259
REMARK  110  A    between atoms: _258  and  _261
REMARK  111  A    between atoms: _264  and  _266
REMARK  112  A    between atoms: _266  and  _267
REMARK  113  A    between atoms: _271  and  _272
REMARK  114  A    between atoms: _277  and  _279
REMARK  115  A    between atoms: _279  and  _280
REMARK  116  A    between atoms: _279  and  _282
REMARK  117  A    between atoms: _285  and  _287
REMARK  118  A    between atoms: _287  and  _288
REMARK  119  A    between atoms: _287  and  _290
REMARK  120  A    between atoms: _290  and  _291
REMARK  121  A    between atoms: _296  and  _298
REMARK  122  A    between atoms: _298  and  _299
REMARK  123  A    between atoms: _298  and  _301
REMARK  124  A    between atoms: _301  and  _302
REMARK  125  A    between atoms: _308  and  _310
REMARK  126  A    between atoms: _310  and  _311
REMARK  127  A    between atoms: _310  and  _313
REMARK  128  A    between atoms: _313  and  _314
REMARK  129  A    between atoms: _317  and  _319
REMARK  130  A    between atoms: _319  and  _320
REMARK  131  A    between atoms: _323  and  _325
REMARK  132  A    between atoms: _325  and  _326
REMARK  133  A    between atoms: _325  and  _328
REMARK  134  A    between atoms: _328  and  _329
REMARK  135  A    between atoms: _331  and  _333
REMARK  136  A    between atoms: _333  and  _334
REMARK  137  A    between atoms: _333  and  _336
REMARK                            x       y       z     vdW  Elec       q    Type
REMARK                         _______ _______ _______ _____ _____    ______ ____
ROOT
ATOM      1  O   HOH     1      33.705  -8.076  14.471  0.00  0.00    +0.000 OA
ENDROOT
TORSDOF 0
REMARK  Name = ../refined-set-2016/1w4q/1w4q_pocket.pdb
REMARK  137 active torsions:
REMARK  status: ('A' for Active; 'I' for Inactive)
REMARK    1  A    between atoms: _1  and  _3
REMARK    2  A    between atoms: _3  and  _4
REMARK    3  A    between atoms: _7  and  _9
REMARK    4  A    between atoms: _9  and  _10
REMARK    5  A    between atoms: _9  and  _12
REMARK    6  A    between atoms: _12  and  _13
REMARK    7  A    between atoms: _13  and  _14
REMARK    8  A    between atoms: _14  and  _15
REMARK    9  A    between atoms: _15  and  _16
REMARK   10  A    between atoms: _20  and  _22
REMARK   11  A    between atoms: _22  and  _23
REMARK   12  A    between atoms: _22  and  _25
REMARK   13  A    between atoms: _25  and  _26
REMARK   14  A    between atoms: _32  and  _34
REMARK   15  A    between atoms: _34  and  _35
REMARK   16  A    between atoms: _34  and  _37
REMARK   17  A    between atoms: _37  and  _38
REMARK   18  A    between atoms: _38  and  _39
REMARK   19  A    between atoms: _39  and  _40
REMARK   20  A    between atoms: _49  and  _51
REMARK   21  A    between atoms: _51  and  _52
REMARK   22  A    between atoms: _51  and  _54
REMARK   23  A    between atoms: _54  and  _55
REMARK   24  A    between atoms: _55  and  _56
REMARK   25  A    between atoms: _61  and  _63
REMARK   26  A    between atoms: _63  and  _64
REMARK   27  A    between atoms: _63  and  _66
REMARK   28  A    between atoms: _66  and  _67
REMARK   29  A    between atoms: _72  and  _74
REMARK   30  A    between atoms: _74  and  _75
REMARK   31  A    between atoms: _74  and  _77
REMARK   32  A    between atoms: _77  and  _78
REMARK   33  A    between atoms: _78  and  _79
REMARK   34  A    between atoms: _81  and  _83
REMARK   35  A    between atoms: _83  and  _84
REMARK   36  A    between atoms: _83  and  _86
REMARK   37  A    between atoms: _86  and  _87
REMARK   38  A    between atoms: _90  and  _92
REMARK   39  A    between atoms: _92  and  _93
REMARK   40  A    between atoms: _92  and  _95
REMARK   41  A    between atoms: _95  and  _96
REMARK   42  A    between atoms: _96  and  _97
REMARK   43  A    between atoms: _97  and  _98
REMARK   44  A    between atoms: _107  and  _109
REMARK   45  A    between atoms: _109  and  _110
REMARK   46  A    between atoms: _109  and  _112
REMARK   47  A    between atoms: _112  and  _113
REMARK   48  A    between atoms: _113  and  _114
REMARK   49  A    between atoms: _114  and  _115
REMARK   50  A    between atoms: _115  and  _116
REMARK   51  A    between atoms: _121  and  _122
REMARK   52  A    between atoms: _127  and  _129
REMARK   53  A    between atoms: _129  and  _130
REMARK   54  A    between atoms: _129  and  _132
REMARK   55  A    between atoms: _135  and  _137
REMARK   56  A    between atoms: _137  and  _138
REMARK   57  A    between atoms: _137  and  _140
REMARK   58  A    between atoms: _140  and  _141
REMARK   59  A    between atoms: _146  and  _148
REMARK   60  A    between atoms: _148  and  _149
REMARK   61  A    between atoms: _148  and  _151
REMARK   62  A    between atoms: _151  and  _152
REMARK   63  A    between atoms: _155  and  _157
REMARK   64  A    between atoms: _157  and  _158
REMARK   65  A    between atoms: _157  and  _160
REMARK   66  A    between atoms: _160  and  _161
REMARK   67  A    between atoms: _167  and  _169
REMARK   68  A    between atoms: _169  and  _170
REMARK   69  A    between atoms: _169  and  _172
REMARK   70  A    between atoms: _172  and  _173
REMARK   71  A    between atoms: _173  and  _174
REMARK   72  A    between atoms: _174  and  _175
REMARK   73  A    between atoms: _175  and  _176
REMARK   74  A    between atoms: _180  and  _182
REMARK   75  A    between atoms: _182  and  _183
REMARK   76  A    between atoms: _182  and  _185
REMARK   77  A    between atoms: _185  and  _186
REMARK   78  A    between atoms: _191  and  _193
REMARK   79  A    between atoms: _193  and  _194
REMARK   80  A    between atoms: _193  and  _196
REMARK   81  A    between atoms: _196  and  _197
REMARK   82  A    between atoms: _200  and  _202
REMARK   83  A    between atoms: _202  and  _203
REMARK   84  A    between atoms: _202  and  _205
REMARK   85  A    between atoms: _205  and  _206
REMARK   86  A    between atoms: _209  and  _211
REMARK   87  A    between atoms: _211  and  _212
REMARK   88  A    between atoms: _211  and  _214
REMARK   89  A    between atoms: _214  and  _215
REMARK   90  A    between atoms: _218  and  _220
REMARK   91  A    between atoms: _220  and  _221
REMARK   92  A    between atoms: _220  and  _223
REMARK   93  A    between atoms: _225  and  _227
REMARK   94  A    between atoms: _227  and  _228
REMARK   95  A    between atoms: _227  and  _230
REMARK   96  A    between atoms: _230  and  _231
REMARK   97  A    between atoms: _231  and  _232
REMARK   98  A    between atoms: _232  and  _233
REMARK   99  A    between atoms: _233  and  _234
REMARK  100  A    between atoms: _238  and  _240
REMARK  101  A    between atoms: _240  and  _241
REMARK  102  A    between atoms: _240  and  _243
REMARK  103  A    between atoms: _243  and  _244
REMARK  104  A    between atoms: _247  and  _249
REMARK  105  A    between atoms: _249  and  _250
REMARK  106  A    between atoms: _249  and  _252
REMARK  107  A    between atoms: _252  and  _253
REMARK  108  A    between atoms: _256  and  _258
REMARK  109  A    between atoms: _258  and  _259
REMARK  110  A    between atoms: _258  and  _261
REMARK  111  A    between atoms: _264  and  _266
REMARK  112  A    between atoms: _266  and  _267
REMARK  113  A    between atoms: _271  and  _272
REMARK  114  A    between atoms: _277  and  _279
REMARK  115  A    between atoms: _279  and  _280
REMARK  116  A    between atoms: _279  and  _282
REMARK  117  A    between atoms: _285  and  _287
REMARK  118  A    between atoms: _287  and  _288
REMARK  119  A    between atoms: _287  and  _290
REMARK  120  A    between atoms: _290  and  _291
REMARK  121  A    between atoms: _296  and  _298
REMARK  122  A    between atoms: _298  and  _299
REMARK  123  A    between atoms: _298  and  _301
REMARK  124  A    between atoms: _301  and  _302
REMARK  125  A    between atoms: _308  and  _310
REMARK  126  A    between atoms: _310  and  _311
REMARK  127  A    between atoms: _310  and  _313
REMARK  128  A    between atoms: _313  and  _314
REMARK  129  A    between atoms: _317  and  _319
REMARK  130  A    between atoms: _319  and  _320
REMARK  131  A    between atoms: _323  and  _325
REMARK  132  A    between atoms: _325  and  _326
REMARK  133  A    between atoms: _325  and  _328
REMARK  134  A    between atoms: _328  and  _329
REMARK  135  A    between atoms: _331  and  _333
REMARK  136  A    between atoms: _333  and  _334
REMARK  137  A    between atoms: _333  and  _336
REMARK                            x       y       z     vdW  Elec       q    Type
REMARK                         _______ _______ _______ _____ _____    ______ ____
ROOT
ATOM      1  O   HOH     1      39.794   4.723  11.311  0.00  0.00    +0.000 OA
ENDROOT
TORSDOF 0
REMARK  Name = ../refined-set-2016/1w4q/1w4q_pocket.pdb
REMARK  137 active torsions:
REMARK  status: ('A' for Active; 'I' for Inactive)
REMARK    1  A    between atoms: _1  and  _3
REMARK    2  A    between atoms: _3  and  _4
REMARK    3  A    between atoms: _7  and  _9
REMARK    4  A    between atoms: _9  and  _10
REMARK    5  A    between atoms: _9  and  _12
REMARK    6  A    between atoms: _12  and  _13
REMARK    7  A    between atoms: _13  and  _14
REMARK    8  A    between atoms: _14  and  _15
REMARK    9  A    between atoms: _15  and  _16
REMARK   10  A    between atoms: _20  and  _22
REMARK   11  A    between atoms: _22  and  _23
REMARK   12  A    between atoms: _22  and  _25
REMARK   13  A    between atoms: _25  and  _26
REMARK   14  A    between atoms: _32  and  _34
REMARK   15  A    between atoms: _34  and  _35
REMARK   16  A    between atoms: _34  and  _37
REMARK   17  A    between atoms: _37  and  _38
REMARK   18  A    between atoms: _38  and  _39
REMARK   19  A    between atoms: _39  and  _40
REMARK   20  A    between atoms: _49  and  _51
REMARK   21  A    between atoms: _51  and  _52
REMARK   22  A    between atoms: _51  and  _54
REMARK   23  A    between atoms: _54  and  _55
REMARK   24  A    between atoms: _55  and  _56
REMARK   25  A    between atoms: _61  and  _63
REMARK   26  A    between atoms: _63  and  _64
REMARK   27  A    between atoms: _63  and  _66
REMARK   28  A    between atoms: _66  and  _67
REMARK   29  A    between atoms: _72  and  _74
REMARK   30  A    between atoms: _74  and  _75
REMARK   31  A    between atoms: _74  and  _77
REMARK   32  A    between atoms: _77  and  _78
REMARK   33  A    between atoms: _78  and  _79
REMARK   34  A    between atoms: _81  and  _83
REMARK   35  A    between atoms: _83  and  _84
REMARK   36  A    between atoms: _83  and  _86
REMARK   37  A    between atoms: _86  and  _87
REMARK   38  A    between atoms: _90  and  _92
REMARK   39  A    between atoms: _92  and  _93
REMARK   40  A    between atoms: _92  and  _95
REMARK   41  A    between atoms: _95  and  _96
REMARK   42  A    between atoms: _96  and  _97
REMARK   43  A    between atoms: _97  and  _98
REMARK   44  A    between atoms: _107  and  _109
REMARK   45  A    between atoms: _109  and  _110
REMARK   46  A    between atoms: _109  and  _112
REMARK   47  A    between atoms: _112  and  _113
REMARK   48  A    between atoms: _113  and  _114
REMARK   49  A    between atoms: _114  and  _115
REMARK   50  A    between atoms: _115  and  _116
REMARK   51  A    between atoms: _121  and  _122
REMARK   52  A    between atoms: _127  and  _129
REMARK   53  A    between atoms: _129  and  _130
REMARK   54  A    between atoms: _129  and  _132
REMARK   55  A    between atoms: _135  and  _137
REMARK   56  A    between atoms: _137  and  _138
REMARK   57  A    between atoms: _137  and  _140
REMARK   58  A    between atoms: _140  and  _141
REMARK   59  A    between atoms: _146  and  _148
REMARK   60  A    between atoms: _148  and  _149
REMARK   61  A    between atoms: _148  and  _151
REMARK   62  A    between atoms: _151  and  _152
REMARK   63  A    between atoms: _155  and  _157
REMARK   64  A    between atoms: _157  and  _158
REMARK   65  A    between atoms: _157  and  _160
REMARK   66  A    between atoms: _160  and  _161
REMARK   67  A    between atoms: _167  and  _169
REMARK   68  A    between atoms: _169  and  _170
REMARK   69  A    between atoms: _169  and  _172
REMARK   70  A    between atoms: _172  and  _173
REMARK   71  A    between atoms: _173  and  _174
REMARK   72  A    between atoms: _174  and  _175
REMARK   73  A    between atoms: _175  and  _176
REMARK   74  A    between atoms: _180  and  _182
REMARK   75  A    between atoms: _182  and  _183
REMARK   76  A    between atoms: _182  and  _185
REMARK   77  A    between atoms: _185  and  _186
REMARK   78  A    between atoms: _191  and  _193
REMARK   79  A    between atoms: _193  and  _194
REMARK   80  A    between atoms: _193  and  _196
REMARK   81  A    between atoms: _196  and  _197
REMARK   82  A    between atoms: _200  and  _202
REMARK   83  A    between atoms: _202  and  _203
REMARK   84  A    between atoms: _202  and  _205
REMARK   85  A    between atoms: _205  and  _206
REMARK   86  A    between atoms: _209  and  _211
REMARK   87  A    between atoms: _211  and  _212
REMARK   88  A    between atoms: _211  and  _214
REMARK   89  A    between atoms: _214  and  _215
REMARK   90  A    between atoms: _218  and  _220
REMARK   91  A    between atoms: _220  and  _221
REMARK   92  A    between atoms: _220  and  _223
REMARK   93  A    between atoms: _225  and  _227
REMARK   94  A    between atoms: _227  and  _228
REMARK   95  A    between atoms: _227  and  _230
REMARK   96  A    between atoms: _230  and  _231
REMARK   97  A    between atoms: _231  and  _232
REMARK   98  A    between atoms: _232  and  _233
REMARK   99  A    between atoms: _233  and  _234
REMARK  100  A    between atoms: _238  and  _240
REMARK  101  A    between atoms: _240  and  _241
REMARK  102  A    between atoms: _240  and  _243
REMARK  103  A    between atoms: _243  and  _244
REMARK  104  A    between atoms: _247  and  _249
REMARK  105  A    between atoms: _249  and  _250
REMARK  106  A    between atoms: _249  and  _252
REMARK  107  A    between atoms: _252  and  _253
REMARK  108  A    between atoms: _256  and  _258
REMARK  109  A    between atoms: _258  and  _259
REMARK  110  A    between atoms: _258  and  _261
REMARK  111  A    between atoms: _264  and  _266
REMARK  112  A    between atoms: _266  and  _267
REMARK  113  A    between atoms: _271  and  _272
REMARK  114  A    between atoms: _277  and  _279
REMARK  115  A    between atoms: _279  and  _280
REMARK  116  A    between atoms: _279  and  _282
REMARK  117  A    between atoms: _285  and  _287
REMARK  118  A    between atoms: _287  and  _288
REMARK  119  A    between atoms: _287  and  _290
REMARK  120  A    between atoms: _290  and  _291
REMARK  121  A    between atoms: _296  and  _298
REMARK  122  A    between atoms: _298  and  _299
REMARK  123  A    between atoms: _298  and  _301
REMARK  124  A    between atoms: _301  and  _302
REMARK  125  A    between atoms: _308  and  _310
REMARK  126  A    between atoms: _310  and  _311
REMARK  127  A    between atoms: _310  and  _313
REMARK  128  A    between atoms: _313  and  _314
REMARK  129  A    between atoms: _317  and  _319
REMARK  130  A    between atoms: _319  and  _320
REMARK  131  A    between atoms: _323  and  _325
REMARK  132  A    between atoms: _325  and  _326
REMARK  133  A    between atoms: _325  and  _328
REMARK  134  A    between atoms: _328  and  _329
REMARK  135  A    between atoms: _331  and  _333
REMARK  136  A    between atoms: _333  and  _334
REMARK  137  A    between atoms: _333  and  _336
REMARK                            x       y       z     vdW  Elec       q    Type
REMARK                         _______ _______ _______ _____ _____    ______ ____
ROOT
ATOM      1  O   HOH     1      40.246   3.670  15.421  0.00  0.00    +0.000 OA
ENDROOT
TORSDOF 0
REMARK  Name = ../refined-set-2016/1w4q/1w4q_pocket.pdb
REMARK  137 active torsions:
REMARK  status: ('A' for Active; 'I' for Inactive)
REMARK    1  A    between atoms: _1  and  _3
REMARK    2  A    between atoms: _3  and  _4
REMARK    3  A    between atoms: _7  and  _9
REMARK    4  A    between atoms: _9  and  _10
REMARK    5  A    between atoms: _9  and  _12
REMARK    6  A    between atoms: _12  and  _13
REMARK    7  A    between atoms: _13  and  _14
REMARK    8  A    between atoms: _14  and  _15
REMARK    9  A    between atoms: _15  and  _16
REMARK   10  A    between atoms: _20  and  _22
REMARK   11  A    between atoms: _22  and  _23
REMARK   12  A    between atoms: _22  and  _25
REMARK   13  A    between atoms: _25  and  _26
REMARK   14  A    between atoms: _32  and  _34
REMARK   15  A    between atoms: _34  and  _35
REMARK   16  A    between atoms: _34  and  _37
REMARK   17  A    between atoms: _37  and  _38
REMARK   18  A    between atoms: _38  and  _39
REMARK   19  A    between atoms: _39  and  _40
REMARK   20  A    between atoms: _49  and  _51
REMARK   21  A    between atoms: _51  and  _52
REMARK   22  A    between atoms: _51  and  _54
REMARK   23  A    between atoms: _54  and  _55
REMARK   24  A    between atoms: _55  and  _56
REMARK   25  A    between atoms: _61  and  _63
REMARK   26  A    between atoms: _63  and  _64
REMARK   27  A    between atoms: _63  and  _66
REMARK   28  A    between atoms: _66  and  _67
REMARK   29  A    between atoms: _72  and  _74
REMARK   30  A    between atoms: _74  and  _75
REMARK   31  A    between atoms: _74  and  _77
REMARK   32  A    between atoms: _77  and  _78
REMARK   33  A    between atoms: _78  and  _79
REMARK   34  A    between atoms: _81  and  _83
REMARK   35  A    between atoms: _83  and  _84
REMARK   36  A    between atoms: _83  and  _86
REMARK   37  A    between atoms: _86  and  _87
REMARK   38  A    between atoms: _90  and  _92
REMARK   39  A    between atoms: _92  and  _93
REMARK   40  A    between atoms: _92  and  _95
REMARK   41  A    between atoms: _95  and  _96
REMARK   42  A    between atoms: _96  and  _97
REMARK   43  A    between atoms: _97  and  _98
REMARK   44  A    between atoms: _107  and  _109
REMARK   45  A    between atoms: _109  and  _110
REMARK   46  A    between atoms: _109  and  _112
REMARK   47  A    between atoms: _112  and  _113
REMARK   48  A    between atoms: _113  and  _114
REMARK   49  A    between atoms: _114  and  _115
REMARK   50  A    between atoms: _115  and  _116
REMARK   51  A    between atoms: _121  and  _122
REMARK   52  A    between atoms: _127  and  _129
REMARK   53  A    between atoms: _129  and  _130
REMARK   54  A    between atoms: _129  and  _132
REMARK   55  A    between atoms: _135  and  _137
REMARK   56  A    between atoms: _137  and  _138
REMARK   57  A    between atoms: _137  and  _140
REMARK   58  A    between atoms: _140  and  _141
REMARK   59  A    between atoms: _146  and  _148
REMARK   60  A    between atoms: _148  and  _149
REMARK   61  A    between atoms: _148  and  _151
REMARK   62  A    between atoms: _151  and  _152
REMARK   63  A    between atoms: _155  and  _157
REMARK   64  A    between atoms: _157  and  _158
REMARK   65  A    between atoms: _157  and  _160
REMARK   66  A    between atoms: _160  and  _161
REMARK   67  A    between atoms: _167  and  _169
REMARK   68  A    between atoms: _169  and  _170
REMARK   69  A    between atoms: _169  and  _172
REMARK   70  A    between atoms: _172  and  _173
REMARK   71  A    between atoms: _173  and  _174
REMARK   72  A    between atoms: _174  and  _175
REMARK   73  A    between atoms: _175  and  _176
REMARK   74  A    between atoms: _180  and  _182
REMARK   75  A    between atoms: _182  and  _183
REMARK   76  A    between atoms: _182  and  _185
REMARK   77  A    between atoms: _185  and  _186
REMARK   78  A    between atoms: _191  and  _193
REMARK   79  A    between atoms: _193  and  _194
REMARK   80  A    between atoms: _193  and  _196
REMARK   81  A    between atoms: _196  and  _197
REMARK   82  A    between atoms: _200  and  _202
REMARK   83  A    between atoms: _202  and  _203
REMARK   84  A    between atoms: _202  and  _205
REMARK   85  A    between atoms: _205  and  _206
REMARK   86  A    between atoms: _209  and  _211
REMARK   87  A    between atoms: _211  and  _212
REMARK   88  A    between atoms: _211  and  _214
REMARK   89  A    between atoms: _214  and  _215
REMARK   90  A    between atoms: _218  and  _220
REMARK   91  A    between atoms: _220  and  _221
REMARK   92  A    between atoms: _220  and  _223
REMARK   93  A    between atoms: _225  and  _227
REMARK   94  A    between atoms: _227  and  _228
REMARK   95  A    between atoms: _227  and  _230
REMARK   96  A    between atoms: _230  and  _231
REMARK   97  A    between atoms: _231  and  _232
REMARK   98  A    between atoms: _232  and  _233
REMARK   99  A    between atoms: _233  and  _234
REMARK  100  A    between atoms: _238  and  _240
REMARK  101  A    between atoms: _240  and  _241
REMARK  102  A    between atoms: _240  and  _243
REMARK  103  A    between atoms: _243  and  _244
REMARK  104  A    between atoms: _247  and  _249
REMARK  105  A    between atoms: _249  and  _250
REMARK  106  A    between atoms: _249  and  _252
REMARK  107  A    between atoms: _252  and  _253
REMARK  108  A    between atoms: _256  and  _258
REMARK  109  A    between atoms: _258  and  _259
REMARK  110  A    between atoms: _258  and  _261
REMARK  111  A    between atoms: _264  and  _266
REMARK  112  A    between atoms: _266  and  _267
REMARK  113  A    between atoms: _271  and  _272
REMARK  114  A    between atoms: _277  and  _279
REMARK  115  A    between atoms: _279  and  _280
REMARK  116  A    between atoms: _279  and  _282
REMARK  117  A    between atoms: _285  and  _287
REMARK  118  A    between atoms: _287  and  _288
REMARK  119  A    between atoms: _287  and  _290
REMARK  120  A    between atoms: _290  and  _291
REMARK  121  A    between atoms: _296  and  _298
REMARK  122  A    between atoms: _298  and  _299
REMARK  123  A    between atoms: _298  and  _301
REMARK  124  A    between atoms: _301  and  _302
REMARK  125  A    between atoms: _308  and  _310
REMARK  126  A    between atoms: _310  and  _311
REMARK  127  A    between atoms: _310  and  _313
REMARK  128  A    between atoms: _313  and  _314
REMARK  129  A    between atoms: _317  and  _319
REMARK  130  A    between atoms: _319  and  _320
REMARK  131  A    between atoms: _323  and  _325
REMARK  132  A    between atoms: _325  and  _326
REMARK  133  A    between atoms: _325  and  _328
REMARK  134  A    between atoms: _328  and  _329
REMARK  135  A    between atoms: _331  and  _333
REMARK  136  A    between atoms: _333  and  _334
REMARK  137  A    between atoms: _333  and  _336
REMARK                            x       y       z     vdW  Elec       q    Type
REMARK                         _______ _______ _______ _____ _____    ______ ____
ROOT
ATOM      1  O   HOH     1      34.008   5.630  12.967  0.00  0.00    +0.000 OA
ENDROOT
TORSDOF 0
