REMARK  Name = ../refined-set-2016/3pb7/3pb7_pocket.pdb
REMARK  138 active torsions:
REMARK  status: ('A' for Active; 'I' for Inactive)
REMARK    1  A    between atoms: _1  and  _3
REMARK    2  A    between atoms: _3  and  _4
REMARK    3  A    between atoms: _3  and  _6
REMARK    4  A    between atoms: _6  and  _7
REMARK    5  A    between atoms: _12  and  _14
REMARK    6  A    between atoms: _14  and  _15
REMARK    7  A    between atoms: _14  and  _17
REMARK    8  A    between atoms: _17  and  _18
REMARK    9  A    between atoms: _18  and  _19
REMARK   10  A    between atoms: _19  and  _20
REMARK   11  A    between atoms: _20  and  _21
REMARK   12  A    between atoms: _25  and  _27
REMARK   13  A    between atoms: _27  and  _28
REMARK   14  A    between atoms: _27  and  _30
REMARK   15  A    between atoms: _30  and  _31
REMARK   16  A    between atoms: _37  and  _39
REMARK   17  A    between atoms: _39  and  _40
REMARK   18  A    between atoms: _39  and  _42
REMARK   19  A    between atoms: _42  and  _43
REMARK   20  A    between atoms: _46  and  _48
REMARK   21  A    between atoms: _48  and  _49
REMARK   22  A    between atoms: _48  and  _51
REMARK   23  A    between atoms: _51  and  _52
REMARK   24  A    between atoms: _52  and  _54
REMARK   25  A    between atoms: _54  and  ZN_335
REMARK   26  A    between atoms: _55  and  _57
REMARK   27  A    between atoms: _57  and  _58
REMARK   28  A    between atoms: _57  and  _60
REMARK   29  A    between atoms: _60  and  _61
REMARK   30  A    between atoms: _63  and  _65
REMARK   31  A    between atoms: _65  and  _66
REMARK   32  A    between atoms: _65  and  _68
REMARK   33  A    between atoms: _68  and  _69
REMARK   34  A    between atoms: _69  and  _70
REMARK   35  A    between atoms: _73  and  _75
REMARK   36  A    between atoms: _75  and  _76
REMARK   37  A    between atoms: _75  and  _78
REMARK   38  A    between atoms: _78  and  _79
REMARK   39  A    between atoms: _79  and  _80
REMARK   40  A    between atoms: _80  and  _82
REMARK   41  A    between atoms: _82  and  ZN_335
REMARK   42  A    between atoms: _83  and  _85
REMARK   43  A    between atoms: _85  and  _86
REMARK   44  A    between atoms: _89  and  _91
REMARK   45  A    between atoms: _91  and  _92
REMARK   46  A    between atoms: _91  and  _94
REMARK   47  A    between atoms: _94  and  _95
REMARK   48  A    between atoms: _105  and  _107
REMARK   49  A    between atoms: _107  and  _108
REMARK   50  A    between atoms: _107  and  _110
REMARK   51  A    between atoms: _110  and  _111
REMARK   52  A    between atoms: _113  and  _115
REMARK   53  A    between atoms: _115  and  _116
REMARK   54  A    between atoms: _115  and  _118
REMARK   55  A    between atoms: _118  and  _119
REMARK   56  A    between atoms: _122  and  _124
REMARK   57  A    between atoms: _124  and  _125
REMARK   58  A    between atoms: _124  and  _127
REMARK   59  A    between atoms: _127  and  _128
REMARK   60  A    between atoms: _131  and  _133
REMARK   61  A    between atoms: _133  and  _134
REMARK   62  A    between atoms: _133  and  _136
REMARK   63  A    between atoms: _136  and  _137
REMARK   64  A    between atoms: _140  and  _142
REMARK   65  A    between atoms: _142  and  _143
REMARK   66  A    between atoms: _142  and  _145
REMARK   67  A    between atoms: _145  and  _146
REMARK   68  A    between atoms: _149  and  _151
REMARK   69  A    between atoms: _151  and  _152
REMARK   70  A    between atoms: _151  and  _154
REMARK   71  A    between atoms: _154  and  _155
REMARK   72  A    between atoms: _158  and  _160
REMARK   73  A    between atoms: _160  and  _161
REMARK   74  A    between atoms: _160  and  _163
REMARK   75  A    between atoms: _163  and  _164
REMARK   76  A    between atoms: _169  and  _171
REMARK   77  A    between atoms: _171  and  _172
REMARK   78  A    between atoms: _171  and  _174
REMARK   79  A    between atoms: _174  and  _175
REMARK   80  A    between atoms: _181  and  _183
REMARK   81  A    between atoms: _183  and  _184
REMARK   82  A    between atoms: _186  and  _188
REMARK   83  A    between atoms: _188  and  _189
REMARK   84  A    between atoms: _188  and  _191
REMARK   85  A    between atoms: _191  and  _192
REMARK   86  A    between atoms: _194  and  _196
REMARK   87  A    between atoms: _196  and  _197
REMARK   88  A    between atoms: _196  and  _199
REMARK   89  A    between atoms: _202  and  _204
REMARK   90  A    between atoms: _204  and  _205
REMARK   91  A    between atoms: _204  and  _207
REMARK   92  A    between atoms: _207  and  _208
REMARK   93  A    between atoms: _208  and  _209
REMARK   94  A    between atoms: _212  and  _214
REMARK   95  A    between atoms: _214  and  _215
REMARK   96  A    between atoms: _214  and  _217
REMARK   97  A    between atoms: _217  and  _218
REMARK   98  A    between atoms: _221  and  _223
REMARK   99  A    between atoms: _223  and  _224
REMARK  100  A    between atoms: _223  and  _226
REMARK  101  A    between atoms: _226  and  _227
REMARK  102  A    between atoms: _230  and  _232
REMARK  103  A    between atoms: _232  and  _233
REMARK  104  A    between atoms: _232  and  _235
REMARK  105  A    between atoms: _235  and  _236
REMARK  106  A    between atoms: _241  and  _243
REMARK  107  A    between atoms: _243  and  _244
REMARK  108  A    between atoms: _243  and  _246
REMARK  109  A    between atoms: _246  and  _247
REMARK  110  A    between atoms: _250  and  _252
REMARK  111  A    between atoms: _252  and  _253
REMARK  112  A    between atoms: _252  and  _255
REMARK  113  A    between atoms: _255  and  _256
REMARK  114  A    between atoms: _258  and  _260
REMARK  115  A    between atoms: _260  and  _261
REMARK  116  A    between atoms: _260  and  _263
REMARK  117  A    between atoms: _263  and  _264
REMARK  118  A    between atoms: _268  and  _269
REMARK  119  A    between atoms: _274  and  _276
REMARK  120  A    between atoms: _276  and  _277
REMARK  121  A    between atoms: _276  and  _279
REMARK  122  A    between atoms: _279  and  _280
REMARK  123  A    between atoms: _287  and  _288
REMARK  124  A    between atoms: _293  and  _295
REMARK  125  A    between atoms: _295  and  _296
REMARK  126  A    between atoms: _299  and  _301
REMARK  127  A    between atoms: _301  and  _302
REMARK  128  A    between atoms: _301  and  _304
REMARK  129  A    between atoms: _304  and  _305
REMARK  130  A    between atoms: _315  and  _317
REMARK  131  A    between atoms: _317  and  _318
REMARK  132  A    between atoms: _317  and  _320
REMARK  133  A    between atoms: _320  and  _321
REMARK  134  A    between atoms: _325  and  ZN_335
REMARK  135  A    between atoms: _326  and  _328
REMARK  136  A    between atoms: _328  and  _329
REMARK  137  A    between atoms: _328  and  _331
REMARK  138  A    between atoms: _331  and  _332
REMARK                            x       y       z     vdW  Elec       q    Type
REMARK                         _______ _______ _______ _____ _____    ______ ____
ROOT
ATOM      1  CB  HIS A   1      14.331  44.308  28.852  0.00  0.00    +0.072 C 
ENDROOT
BRANCH   1   2
ATOM      2  CG  HIS A   1      12.994  45.007  29.041  0.00  0.00    +0.082 A 
ATOM      3  ND1 HIS A   1      12.826  46.034  29.954  0.00  0.00    -0.227 NA
ATOM      4  CE1 HIS A   1      11.595  46.503  29.908  0.00  0.00    +0.199 A 
ATOM      5  NE2 HIS A   1      10.939  45.835  28.951  0.00  0.00    -0.221 NA
ATOM      6  CD2 HIS A   1      11.800  44.881  28.413  0.00  0.00    +0.115 A 
ENDBRANCH   1   2
BRANCH   1   7
ATOM      7  CA  HIS A   1      14.546  43.029  29.717  0.00  0.00    +0.139 C 
BRANCH   7   8
ATOM      8  N   HIS A   1      13.798  41.856  29.180  0.00  0.00    -0.239 NA
ATOM      9  H   HIS A   1      12.770  41.911  29.032  0.00  0.00    +0.142 HD
ENDBRANCH   7   8
BRANCH   7  10
ATOM     10  C   HIS A   1      14.170  43.237  31.194  0.00  0.00    +0.224 C 
ATOM     11  O   HIS A   1      12.981  43.095  31.576  0.00  0.00    -0.287 OA
ENDBRANCH   7  10
ENDBRANCH   1   7
TORSDOF 4
REMARK  Name = ../refined-set-2016/3pb7/3pb7_pocket.pdb
REMARK  138 active torsions:
REMARK  status: ('A' for Active; 'I' for Inactive)
REMARK    1  A    between atoms: _1  and  _3
REMARK    2  A    between atoms: _3  and  _4
REMARK    3  A    between atoms: _3  and  _6
REMARK    4  A    between atoms: _6  and  _7
REMARK    5  A    between atoms: _12  and  _14
REMARK    6  A    between atoms: _14  and  _15
REMARK    7  A    between atoms: _14  and  _17
REMARK    8  A    between atoms: _17  and  _18
REMARK    9  A    between atoms: _18  and  _19
REMARK   10  A    between atoms: _19  and  _20
REMARK   11  A    between atoms: _20  and  _21
REMARK   12  A    between atoms: _25  and  _27
REMARK   13  A    between atoms: _27  and  _28
REMARK   14  A    between atoms: _27  and  _30
REMARK   15  A    between atoms: _30  and  _31
REMARK   16  A    between atoms: _37  and  _39
REMARK   17  A    between atoms: _39  and  _40
REMARK   18  A    between atoms: _39  and  _42
REMARK   19  A    between atoms: _42  and  _43
REMARK   20  A    between atoms: _46  and  _48
REMARK   21  A    between atoms: _48  and  _49
REMARK   22  A    between atoms: _48  and  _51
REMARK   23  A    between atoms: _51  and  _52
REMARK   24  A    between atoms: _52  and  _54
REMARK   25  A    between atoms: _54  and  ZN_335
REMARK   26  A    between atoms: _55  and  _57
REMARK   27  A    between atoms: _57  and  _58
REMARK   28  A    between atoms: _57  and  _60
REMARK   29  A    between atoms: _60  and  _61
REMARK   30  A    between atoms: _63  and  _65
REMARK   31  A    between atoms: _65  and  _66
REMARK   32  A    between atoms: _65  and  _68
REMARK   33  A    between atoms: _68  and  _69
REMARK   34  A    between atoms: _69  and  _70
REMARK   35  A    between atoms: _73  and  _75
REMARK   36  A    between atoms: _75  and  _76
REMARK   37  A    between atoms: _75  and  _78
REMARK   38  A    between atoms: _78  and  _79
REMARK   39  A    between atoms: _79  and  _80
REMARK   40  A    between atoms: _80  and  _82
REMARK   41  A    between atoms: _82  and  ZN_335
REMARK   42  A    between atoms: _83  and  _85
REMARK   43  A    between atoms: _85  and  _86
REMARK   44  A    between atoms: _89  and  _91
REMARK   45  A    between atoms: _91  and  _92
REMARK   46  A    between atoms: _91  and  _94
REMARK   47  A    between atoms: _94  and  _95
REMARK   48  A    between atoms: _105  and  _107
REMARK   49  A    between atoms: _107  and  _108
REMARK   50  A    between atoms: _107  and  _110
REMARK   51  A    between atoms: _110  and  _111
REMARK   52  A    between atoms: _113  and  _115
REMARK   53  A    between atoms: _115  and  _116
REMARK   54  A    between atoms: _115  and  _118
REMARK   55  A    between atoms: _118  and  _119
REMARK   56  A    between atoms: _122  and  _124
REMARK   57  A    between atoms: _124  and  _125
REMARK   58  A    between atoms: _124  and  _127
REMARK   59  A    between atoms: _127  and  _128
REMARK   60  A    between atoms: _131  and  _133
REMARK   61  A    between atoms: _133  and  _134
REMARK   62  A    between atoms: _133  and  _136
REMARK   63  A    between atoms: _136  and  _137
REMARK   64  A    between atoms: _140  and  _142
REMARK   65  A    between atoms: _142  and  _143
REMARK   66  A    between atoms: _142  and  _145
REMARK   67  A    between atoms: _145  and  _146
REMARK   68  A    between atoms: _149  and  _151
REMARK   69  A    between atoms: _151  and  _152
REMARK   70  A    between atoms: _151  and  _154
REMARK   71  A    between atoms: _154  and  _155
REMARK   72  A    between atoms: _158  and  _160
REMARK   73  A    between atoms: _160  and  _161
REMARK   74  A    between atoms: _160  and  _163
REMARK   75  A    between atoms: _163  and  _164
REMARK   76  A    between atoms: _169  and  _171
REMARK   77  A    between atoms: _171  and  _172
REMARK   78  A    between atoms: _171  and  _174
REMARK   79  A    between atoms: _174  and  _175
REMARK   80  A    between atoms: _181  and  _183
REMARK   81  A    between atoms: _183  and  _184
REMARK   82  A    between atoms: _186  and  _188
REMARK   83  A    between atoms: _188  and  _189
REMARK   84  A    between atoms: _188  and  _191
REMARK   85  A    between atoms: _191  and  _192
REMARK   86  A    between atoms: _194  and  _196
REMARK   87  A    between atoms: _196  and  _197
REMARK   88  A    between atoms: _196  and  _199
REMARK   89  A    between atoms: _202  and  _204
REMARK   90  A    between atoms: _204  and  _205
REMARK   91  A    between atoms: _204  and  _207
REMARK   92  A    between atoms: _207  and  _208
REMARK   93  A    between atoms: _208  and  _209
REMARK   94  A    between atoms: _212  and  _214
REMARK   95  A    between atoms: _214  and  _215
REMARK   96  A    between atoms: _214  and  _217
REMARK   97  A    between atoms: _217  and  _218
REMARK   98  A    between atoms: _221  and  _223
REMARK   99  A    between atoms: _223  and  _224
REMARK  100  A    between atoms: _223  and  _226
REMARK  101  A    between atoms: _226  and  _227
REMARK  102  A    between atoms: _230  and  _232
REMARK  103  A    between atoms: _232  and  _233
REMARK  104  A    between atoms: _232  and  _235
REMARK  105  A    between atoms: _235  and  _236
REMARK  106  A    between atoms: _241  and  _243
REMARK  107  A    between atoms: _243  and  _244
REMARK  108  A    between atoms: _243  and  _246
REMARK  109  A    between atoms: _246  and  _247
REMARK  110  A    between atoms: _250  and  _252
REMARK  111  A    between atoms: _252  and  _253
REMARK  112  A    between atoms: _252  and  _255
REMARK  113  A    between atoms: _255  and  _256
REMARK  114  A    between atoms: _258  and  _260
REMARK  115  A    between atoms: _260  and  _261
REMARK  116  A    between atoms: _260  and  _263
REMARK  117  A    between atoms: _263  and  _264
REMARK  118  A    between atoms: _268  and  _269
REMARK  119  A    between atoms: _274  and  _276
REMARK  120  A    between atoms: _276  and  _277
REMARK  121  A    between atoms: _276  and  _279
REMARK  122  A    between atoms: _279  and  _280
REMARK  123  A    between atoms: _287  and  _288
REMARK  124  A    between atoms: _293  and  _295
REMARK  125  A    between atoms: _295  and  _296
REMARK  126  A    between atoms: _299  and  _301
REMARK  127  A    between atoms: _301  and  _302
REMARK  128  A    between atoms: _301  and  _304
REMARK  129  A    between atoms: _304  and  _305
REMARK  130  A    between atoms: _315  and  _317
REMARK  131  A    between atoms: _317  and  _318
REMARK  132  A    between atoms: _317  and  _320
REMARK  133  A    between atoms: _320  and  _321
REMARK  134  A    between atoms: _325  and  ZN_335
REMARK  135  A    between atoms: _326  and  _328
REMARK  136  A    between atoms: _328  and  _329
REMARK  137  A    between atoms: _328  and  _331
REMARK  138  A    between atoms: _331  and  _332
REMARK                            x       y       z     vdW  Elec       q    Type
REMARK                         _______ _______ _______ _____ _____    ______ ____
ROOT
ATOM      1  CG  LYS A   1      10.120  54.131  29.738  0.00  0.00    -0.000 C 
ENDROOT
BRANCH   1   2
ATOM      2  CB  LYS A   1      10.134  52.904  30.621  0.00  0.00    +0.025 C 
BRANCH   2   3
ATOM      3  CA  LYS A   1      11.371  52.786  31.498  0.00  0.00    +0.133 C 
BRANCH   3   4
ATOM      4  N   LYS A   1      11.280  51.506  32.260  0.00  0.00    -0.239 NA
ATOM      5  H   LYS A   1      10.417  50.931  32.183  0.00  0.00    +0.142 HD
ENDBRANCH   3   4
BRANCH   3   6
ATOM      6  C   LYS A   1      11.373  54.005  32.434  0.00  0.00    +0.224 C 
ATOM      7  O   LYS A   1      10.550  54.093  33.382  0.00  0.00    -0.287 OA
ENDBRANCH   3   6
ENDBRANCH   2   3
ENDBRANCH   1   2
BRANCH   1   8
ATOM      8  CD  LYS A   1       8.997  54.025  28.719  0.00  0.00    -0.024 C 
BRANCH   8   9
ATOM      9  CE  LYS A   1       8.825  55.291  27.898  0.00  0.00    -0.086 C 
BRANCH   9  10
ATOM     10  NZ  LYS A   1      10.049  55.623  27.156  0.00  0.00    +0.380 N 
ATOM     11  HZ1 LYS A   1      10.831  55.769  27.826  0.00  0.00    -0.089 HD
ATOM     12  HZ2 LYS A   1       9.895  56.493  26.607  0.00  0.00    -0.089 HD
ATOM     13  HZ3 LYS A   1      10.285  54.842  26.511  0.00  0.00    -0.089 HD
ENDBRANCH   9  10
ENDBRANCH   8   9
ENDBRANCH   1   8
TORSDOF 7
REMARK  Name = ../refined-set-2016/3pb7/3pb7_pocket.pdb
REMARK  138 active torsions:
REMARK  status: ('A' for Active; 'I' for Inactive)
REMARK    1  A    between atoms: _1  and  _3
REMARK    2  A    between atoms: _3  and  _4
REMARK    3  A    between atoms: _3  and  _6
REMARK    4  A    between atoms: _6  and  _7
REMARK    5  A    between atoms: _12  and  _14
REMARK    6  A    between atoms: _14  and  _15
REMARK    7  A    between atoms: _14  and  _17
REMARK    8  A    between atoms: _17  and  _18
REMARK    9  A    between atoms: _18  and  _19
REMARK   10  A    between atoms: _19  and  _20
REMARK   11  A    between atoms: _20  and  _21
REMARK   12  A    between atoms: _25  and  _27
REMARK   13  A    between atoms: _27  and  _28
REMARK   14  A    between atoms: _27  and  _30
REMARK   15  A    between atoms: _30  and  _31
REMARK   16  A    between atoms: _37  and  _39
REMARK   17  A    between atoms: _39  and  _40
REMARK   18  A    between atoms: _39  and  _42
REMARK   19  A    between atoms: _42  and  _43
REMARK   20  A    between atoms: _46  and  _48
REMARK   21  A    between atoms: _48  and  _49
REMARK   22  A    between atoms: _48  and  _51
REMARK   23  A    between atoms: _51  and  _52
REMARK   24  A    between atoms: _52  and  _54
REMARK   25  A    between atoms: _54  and  ZN_335
REMARK   26  A    between atoms: _55  and  _57
REMARK   27  A    between atoms: _57  and  _58
REMARK   28  A    between atoms: _57  and  _60
REMARK   29  A    between atoms: _60  and  _61
REMARK   30  A    between atoms: _63  and  _65
REMARK   31  A    between atoms: _65  and  _66
REMARK   32  A    between atoms: _65  and  _68
REMARK   33  A    between atoms: _68  and  _69
REMARK   34  A    between atoms: _69  and  _70
REMARK   35  A    between atoms: _73  and  _75
REMARK   36  A    between atoms: _75  and  _76
REMARK   37  A    between atoms: _75  and  _78
REMARK   38  A    between atoms: _78  and  _79
REMARK   39  A    between atoms: _79  and  _80
REMARK   40  A    between atoms: _80  and  _82
REMARK   41  A    between atoms: _82  and  ZN_335
REMARK   42  A    between atoms: _83  and  _85
REMARK   43  A    between atoms: _85  and  _86
REMARK   44  A    between atoms: _89  and  _91
REMARK   45  A    between atoms: _91  and  _92
REMARK   46  A    between atoms: _91  and  _94
REMARK   47  A    between atoms: _94  and  _95
REMARK   48  A    between atoms: _105  and  _107
REMARK   49  A    between atoms: _107  and  _108
REMARK   50  A    between atoms: _107  and  _110
REMARK   51  A    between atoms: _110  and  _111
REMARK   52  A    between atoms: _113  and  _115
REMARK   53  A    between atoms: _115  and  _116
REMARK   54  A    between atoms: _115  and  _118
REMARK   55  A    between atoms: _118  and  _119
REMARK   56  A    between atoms: _122  and  _124
REMARK   57  A    between atoms: _124  and  _125
REMARK   58  A    between atoms: _124  and  _127
REMARK   59  A    between atoms: _127  and  _128
REMARK   60  A    between atoms: _131  and  _133
REMARK   61  A    between atoms: _133  and  _134
REMARK   62  A    between atoms: _133  and  _136
REMARK   63  A    between atoms: _136  and  _137
REMARK   64  A    between atoms: _140  and  _142
REMARK   65  A    between atoms: _142  and  _143
REMARK   66  A    between atoms: _142  and  _145
REMARK   67  A    between atoms: _145  and  _146
REMARK   68  A    between atoms: _149  and  _151
REMARK   69  A    between atoms: _151  and  _152
REMARK   70  A    between atoms: _151  and  _154
REMARK   71  A    between atoms: _154  and  _155
REMARK   72  A    between atoms: _158  and  _160
REMARK   73  A    between atoms: _160  and  _161
REMARK   74  A    between atoms: _160  and  _163
REMARK   75  A    between atoms: _163  and  _164
REMARK   76  A    between atoms: _169  and  _171
REMARK   77  A    between atoms: _171  and  _172
REMARK   78  A    between atoms: _171  and  _174
REMARK   79  A    between atoms: _174  and  _175
REMARK   80  A    between atoms: _181  and  _183
REMARK   81  A    between atoms: _183  and  _184
REMARK   82  A    between atoms: _186  and  _188
REMARK   83  A    between atoms: _188  and  _189
REMARK   84  A    between atoms: _188  and  _191
REMARK   85  A    between atoms: _191  and  _192
REMARK   86  A    between atoms: _194  and  _196
REMARK   87  A    between atoms: _196  and  _197
REMARK   88  A    between atoms: _196  and  _199
REMARK   89  A    between atoms: _202  and  _204
REMARK   90  A    between atoms: _204  and  _205
REMARK   91  A    between atoms: _204  and  _207
REMARK   92  A    between atoms: _207  and  _208
REMARK   93  A    between atoms: _208  and  _209
REMARK   94  A    between atoms: _212  and  _214
REMARK   95  A    between atoms: _214  and  _215
REMARK   96  A    between atoms: _214  and  _217
REMARK   97  A    between atoms: _217  and  _218
REMARK   98  A    between atoms: _221  and  _223
REMARK   99  A    between atoms: _223  and  _224
REMARK  100  A    between atoms: _223  and  _226
REMARK  101  A    between atoms: _226  and  _227
REMARK  102  A    between atoms: _230  and  _232
REMARK  103  A    between atoms: _232  and  _233
REMARK  104  A    between atoms: _232  and  _235
REMARK  105  A    between atoms: _235  and  _236
REMARK  106  A    between atoms: _241  and  _243
REMARK  107  A    between atoms: _243  and  _244
REMARK  108  A    between atoms: _243  and  _246
REMARK  109  A    between atoms: _246  and  _247
REMARK  110  A    between atoms: _250  and  _252
REMARK  111  A    between atoms: _252  and  _253
REMARK  112  A    between atoms: _252  and  _255
REMARK  113  A    between atoms: _255  and  _256
REMARK  114  A    between atoms: _258  and  _260
REMARK  115  A    between atoms: _260  and  _261
REMARK  116  A    between atoms: _260  and  _263
REMARK  117  A    between atoms: _263  and  _264
REMARK  118  A    between atoms: _268  and  _269
REMARK  119  A    between atoms: _274  and  _276
REMARK  120  A    between atoms: _276  and  _277
REMARK  121  A    between atoms: _276  and  _279
REMARK  122  A    between atoms: _279  and  _280
REMARK  123  A    between atoms: _287  and  _288
REMARK  124  A    between atoms: _293  and  _295
REMARK  125  A    between atoms: _295  and  _296
REMARK  126  A    between atoms: _299  and  _301
REMARK  127  A    between atoms: _301  and  _302
REMARK  128  A    between atoms: _301  and  _304
REMARK  129  A    between atoms: _304  and  _305
REMARK  130  A    between atoms: _315  and  _317
REMARK  131  A    between atoms: _317  and  _318
REMARK  132  A    between atoms: _317  and  _320
REMARK  133  A    between atoms: _320  and  _321
REMARK  134  A    between atoms: _325  and  ZN_335
REMARK  135  A    between atoms: _326  and  _328
REMARK  136  A    between atoms: _328  and  _329
REMARK  137  A    between atoms: _328  and  _331
REMARK  138  A    between atoms: _331  and  _332
REMARK                            x       y       z     vdW  Elec       q    Type
REMARK                         _______ _______ _______ _____ _____    ______ ____
ROOT
ATOM      1  CB  PHE A   1       6.820  53.749  35.375  0.00  0.00    +0.051 C 
ENDROOT
BRANCH   1   2
ATOM      2  CG  PHE A   1       6.639  52.764  34.243  0.00  0.00    -0.020 A 
ATOM      3  CD2 PHE A   1       5.360  52.484  33.783  0.00  0.00    -0.004 A 
ATOM      4  CE2 PHE A   1       5.153  51.559  32.823  0.00  0.00    -0.000 A 
ATOM      5  CZ  PHE A   1       6.231  50.807  32.325  0.00  0.00    -0.000 A 
ATOM      6  CE1 PHE A   1       7.512  51.031  32.781  0.00  0.00    -0.000 A 
ATOM      7  CD1 PHE A   1       7.722  52.011  33.759  0.00  0.00    -0.004 A 
ENDBRANCH   1   2
BRANCH   1   8
ATOM      8  CA  PHE A   1       6.501  53.185  36.769  0.00  0.00    +0.137 C 
BRANCH   8   9
ATOM      9  N   PHE A   1       6.702  54.217  37.771  0.00  0.00    -0.239 NA
ATOM     10  H   PHE A   1       7.437  54.933  37.602  0.00  0.00    +0.142 HD
ENDBRANCH   8   9
BRANCH   8  11
ATOM     11  C   PHE A   1       7.348  51.974  37.101  0.00  0.00    +0.224 C 
ATOM     12  O   PHE A   1       8.578  52.060  37.137  0.00  0.00    -0.287 OA
ENDBRANCH   8  11
ENDBRANCH   1   8
TORSDOF 4
REMARK  Name = ../refined-set-2016/3pb7/3pb7_pocket.pdb
REMARK  138 active torsions:
REMARK  status: ('A' for Active; 'I' for Inactive)
REMARK    1  A    between atoms: _1  and  _3
REMARK    2  A    between atoms: _3  and  _4
REMARK    3  A    between atoms: _3  and  _6
REMARK    4  A    between atoms: _6  and  _7
REMARK    5  A    between atoms: _12  and  _14
REMARK    6  A    between atoms: _14  and  _15
REMARK    7  A    between atoms: _14  and  _17
REMARK    8  A    between atoms: _17  and  _18
REMARK    9  A    between atoms: _18  and  _19
REMARK   10  A    between atoms: _19  and  _20
REMARK   11  A    between atoms: _20  and  _21
REMARK   12  A    between atoms: _25  and  _27
REMARK   13  A    between atoms: _27  and  _28
REMARK   14  A    between atoms: _27  and  _30
REMARK   15  A    between atoms: _30  and  _31
REMARK   16  A    between atoms: _37  and  _39
REMARK   17  A    between atoms: _39  and  _40
REMARK   18  A    between atoms: _39  and  _42
REMARK   19  A    between atoms: _42  and  _43
REMARK   20  A    between atoms: _46  and  _48
REMARK   21  A    between atoms: _48  and  _49
REMARK   22  A    between atoms: _48  and  _51
REMARK   23  A    between atoms: _51  and  _52
REMARK   24  A    between atoms: _52  and  _54
REMARK   25  A    between atoms: _54  and  ZN_335
REMARK   26  A    between atoms: _55  and  _57
REMARK   27  A    between atoms: _57  and  _58
REMARK   28  A    between atoms: _57  and  _60
REMARK   29  A    between atoms: _60  and  _61
REMARK   30  A    between atoms: _63  and  _65
REMARK   31  A    between atoms: _65  and  _66
REMARK   32  A    between atoms: _65  and  _68
REMARK   33  A    between atoms: _68  and  _69
REMARK   34  A    between atoms: _69  and  _70
REMARK   35  A    between atoms: _73  and  _75
REMARK   36  A    between atoms: _75  and  _76
REMARK   37  A    between atoms: _75  and  _78
REMARK   38  A    between atoms: _78  and  _79
REMARK   39  A    between atoms: _79  and  _80
REMARK   40  A    between atoms: _80  and  _82
REMARK   41  A    between atoms: _82  and  ZN_335
REMARK   42  A    between atoms: _83  and  _85
REMARK   43  A    between atoms: _85  and  _86
REMARK   44  A    between atoms: _89  and  _91
REMARK   45  A    between atoms: _91  and  _92
REMARK   46  A    between atoms: _91  and  _94
REMARK   47  A    between atoms: _94  and  _95
REMARK   48  A    between atoms: _105  and  _107
REMARK   49  A    between atoms: _107  and  _108
REMARK   50  A    between atoms: _107  and  _110
REMARK   51  A    between atoms: _110  and  _111
REMARK   52  A    between atoms: _113  and  _115
REMARK   53  A    between atoms: _115  and  _116
REMARK   54  A    between atoms: _115  and  _118
REMARK   55  A    between atoms: _118  and  _119
REMARK   56  A    between atoms: _122  and  _124
REMARK   57  A    between atoms: _124  and  _125
REMARK   58  A    between atoms: _124  and  _127
REMARK   59  A    between atoms: _127  and  _128
REMARK   60  A    between atoms: _131  and  _133
REMARK   61  A    between atoms: _133  and  _134
REMARK   62  A    between atoms: _133  and  _136
REMARK   63  A    between atoms: _136  and  _137
REMARK   64  A    between atoms: _140  and  _142
REMARK   65  A    between atoms: _142  and  _143
REMARK   66  A    between atoms: _142  and  _145
REMARK   67  A    between atoms: _145  and  _146
REMARK   68  A    between atoms: _149  and  _151
REMARK   69  A    between atoms: _151  and  _152
REMARK   70  A    between atoms: _151  and  _154
REMARK   71  A    between atoms: _154  and  _155
REMARK   72  A    between atoms: _158  and  _160
REMARK   73  A    between atoms: _160  and  _161
REMARK   74  A    between atoms: _160  and  _163
REMARK   75  A    between atoms: _163  and  _164
REMARK   76  A    between atoms: _169  and  _171
REMARK   77  A    between atoms: _171  and  _172
REMARK   78  A    between atoms: _171  and  _174
REMARK   79  A    between atoms: _174  and  _175
REMARK   80  A    between atoms: _181  and  _183
REMARK   81  A    between atoms: _183  and  _184
REMARK   82  A    between atoms: _186  and  _188
REMARK   83  A    between atoms: _188  and  _189
REMARK   84  A    between atoms: _188  and  _191
REMARK   85  A    between atoms: _191  and  _192
REMARK   86  A    between atoms: _194  and  _196
REMARK   87  A    between atoms: _196  and  _197
REMARK   88  A    between atoms: _196  and  _199
REMARK   89  A    between atoms: _202  and  _204
REMARK   90  A    between atoms: _204  and  _205
REMARK   91  A    between atoms: _204  and  _207
REMARK   92  A    between atoms: _207  and  _208
REMARK   93  A    between atoms: _208  and  _209
REMARK   94  A    between atoms: _212  and  _214
REMARK   95  A    between atoms: _214  and  _215
REMARK   96  A    between atoms: _214  and  _217
REMARK   97  A    between atoms: _217  and  _218
REMARK   98  A    between atoms: _221  and  _223
REMARK   99  A    between atoms: _223  and  _224
REMARK  100  A    between atoms: _223  and  _226
REMARK  101  A    between atoms: _226  and  _227
REMARK  102  A    between atoms: _230  and  _232
REMARK  103  A    between atoms: _232  and  _233
REMARK  104  A    between atoms: _232  and  _235
REMARK  105  A    between atoms: _235  and  _236
REMARK  106  A    between atoms: _241  and  _243
REMARK  107  A    between atoms: _243  and  _244
REMARK  108  A    between atoms: _243  and  _246
REMARK  109  A    between atoms: _246  and  _247
REMARK  110  A    between atoms: _250  and  _252
REMARK  111  A    between atoms: _252  and  _253
REMARK  112  A    between atoms: _252  and  _255
REMARK  113  A    between atoms: _255  and  _256
REMARK  114  A    between atoms: _258  and  _260
REMARK  115  A    between atoms: _260  and  _261
REMARK  116  A    between atoms: _260  and  _263
REMARK  117  A    between atoms: _263  and  _264
REMARK  118  A    between atoms: _268  and  _269
REMARK  119  A    between atoms: _274  and  _276
REMARK  120  A    between atoms: _276  and  _277
REMARK  121  A    between atoms: _276  and  _279
REMARK  122  A    between atoms: _279  and  _280
REMARK  123  A    between atoms: _287  and  _288
REMARK  124  A    between atoms: _293  and  _295
REMARK  125  A    between atoms: _295  and  _296
REMARK  126  A    between atoms: _299  and  _301
REMARK  127  A    between atoms: _301  and  _302
REMARK  128  A    between atoms: _301  and  _304
REMARK  129  A    between atoms: _304  and  _305
REMARK  130  A    between atoms: _315  and  _317
REMARK  131  A    between atoms: _317  and  _318
REMARK  132  A    between atoms: _317  and  _320
REMARK  133  A    between atoms: _320  and  _321
REMARK  134  A    between atoms: _325  and  ZN_335
REMARK  135  A    between atoms: _326  and  _328
REMARK  136  A    between atoms: _328  and  _329
REMARK  137  A    between atoms: _328  and  _331
REMARK  138  A    between atoms: _331  and  _332
REMARK                            x       y       z     vdW  Elec       q    Type
REMARK                         _______ _______ _______ _____ _____    ______ ____
ROOT
ATOM      1 ZN   UNK A   2       8.190  49.249  27.600  0.00  0.00    +0.000 Zn
ENDROOT
BRANCH   1   2
ATOM      2  N   UNK A   2       7.197  50.990  27.337  0.00  0.00    +0.000 N 
ATOM      3  C   UNK A   2       6.050  51.297  28.057  0.00  0.00    +0.000 A 
ATOM      4  C   UNK A   2       5.581  52.481  27.594  0.00  0.00    +0.000 A 
ATOM      5  N   UNK A   2       6.428  52.863  26.570  0.00  0.00    +0.000 NA
ATOM      6  C   UNK A   2       7.412  51.970  26.448  0.00  0.00    +0.000 A 
BRANCH   4   7
ATOM      7  C   UNK A   2       4.361  53.250  28.008  0.00  0.00    +0.000 C 
BRANCH   7   8
ATOM      8  C   UNK A   2       3.816  52.756  29.367  0.00  0.00    +0.000 C 
BRANCH   8   9
ATOM      9  N   UNK A   2       3.107  51.472  29.188  0.00  0.00    +0.000 N 
ATOM     10  H   UNK A   2       3.553  50.616  29.576  0.00  0.00    +0.000 HD
ATOM     11  C   TRP A   1       1.936  51.331  28.565  0.00  0.00    +0.000 C 
ATOM     12  O   TRP A   1       1.252  52.313  28.143  0.00  0.00    +0.000 OA
BRANCH  11  13
ATOM     13  CA  TRP A   1       1.390  49.901  28.437  0.00  0.00    +0.000 C 
BRANCH  13  14
ATOM     14  N   TRP A   1       0.018  49.713  28.933  0.00  0.00    +0.000 NA
ATOM     15  H   TRP A   1      -0.687  49.245  28.329  0.00  0.00    +0.000 HD
ENDBRANCH  13  14
BRANCH  13  16
ATOM     16  CB  TRP A   1       1.470  49.439  26.970  0.00  0.00    +0.000 C 
BRANCH  16  17
ATOM     17  CG  TRP A   1       2.824  49.515  26.326  0.00  0.00    +0.000 A 
ATOM     18  CD1 TRP A   1       3.846  48.612  26.407  0.00  0.00    +0.000 A 
ATOM     19  NE1 TRP A   1       4.947  49.056  25.621  0.00  0.00    +0.000 N 
ATOM     20  HE1 TRP A   1       5.859  48.566  25.528  0.00  0.00    +0.000 HD
ATOM     21  CE2 TRP A   1       4.607  50.243  25.003  0.00  0.00    +0.000 A 
ATOM     22  CZ2 TRP A   1       5.331  51.047  24.139  0.00  0.00    +0.000 A 
ATOM     23  CH2 TRP A   1       4.707  52.166  23.624  0.00  0.00    +0.000 A 
ATOM     24  CZ3 TRP A   1       3.425  52.522  24.007  0.00  0.00    +0.000 A 
ATOM     25  CE3 TRP A   1       2.681  51.749  24.931  0.00  0.00    +0.000 A 
ATOM     26  CD2 TRP A   1       3.281  50.580  25.433  0.00  0.00    +0.000 A 
ENDBRANCH  16  17
ENDBRANCH  13  16
ENDBRANCH  11  13
ENDBRANCH   8   9
BRANCH   8  27
ATOM     27  C   UNK A   2       2.903  53.810  30.038  0.00  0.00    +0.000 C 
ATOM     28  O   UNK A   2       3.080  55.004  29.802  0.00  0.00    +0.000 OA
ENDBRANCH   8  27
ENDBRANCH   7   8
ENDBRANCH   4   7
ENDBRANCH   1   2
BRANCH   1  29
ATOM     29  O   UNK A   2       9.876  49.448  28.601  0.00  0.00    +0.000 OA
BRANCH  29  30
ATOM     30  C   UNK A   2      10.720  50.166  28.048  0.00  0.00    +0.000 C 
ATOM     31  O   UNK A   2      10.465  50.873  27.003  0.00  0.00    +0.000 OA
BRANCH  30  32
ATOM     32  C   UNK A   2      12.092  50.292  28.766  0.00  0.00    +0.000 C 
BRANCH  32  33
ATOM     33  C   UNK A   2      12.982  51.428  28.291  0.00  0.00    +0.000 C 
BRANCH  33  34
ATOM     34  C   UNK A   2      13.748  51.134  27.015  0.00  0.00    +0.000 C 
BRANCH  34  35
ATOM     35  C   UNK A   2      14.554  52.376  26.651  0.00  0.00    +0.000 C 
ATOM     36  O   UNK A   2      15.695  52.553  27.095  0.00  0.00    +0.000 OA
ATOM     37  N   ALA A   3      13.870  53.261  25.907  0.00  0.00    +0.000 N 
ATOM     38  H   ALA A   3      12.946  52.998  25.509  0.00  0.00    +0.000 HD
BRANCH  37  39
ATOM     39  CA  ALA A   3      14.415  54.580  25.657  0.00  0.00    +0.000 C 
ATOM     40  CB  ALA A   3      13.560  55.340  24.751  0.00  0.00    +0.000 C 
BRANCH  39  41
ATOM     41  C   ALA A   3      14.545  55.362  26.958  0.00  0.00    +0.000 C 
ATOM     42  O   ALA A   3      13.700  55.255  27.844  0.00  0.00    +0.000 OA
ENDBRANCH  39  41
ENDBRANCH  37  39
ENDBRANCH  34  35
BRANCH  34  43
ATOM     43  N   UNK A   2      14.640  50.016  27.235  0.00  0.00    +0.000 N 
ATOM     44  H   UNK A   2      14.891  49.743  28.206  0.00  0.00    +0.000 HD
ATOM     45  C   TRP A   1      15.138  49.340  26.219  0.00  0.00    +0.000 C 
ATOM     46  O   TRP A   1      15.006  49.699  25.028  0.00  0.00    +0.000 OA
BRANCH  45  47
ATOM     47  CA  TRP A   1      15.790  47.987  26.524  0.00  0.00    +0.000 C 
BRANCH  47  48
ATOM     48  N   TRP A   1      16.630  48.111  27.684  0.00  0.00    +0.000 NA
ATOM     49  H   TRP A   1      16.432  47.549  28.536  0.00  0.00    +0.000 HD
ENDBRANCH  47  48
BRANCH  47  50
ATOM     50  CB  TRP A   1      14.794  46.855  26.741  0.00  0.00    +0.000 C 
BRANCH  50  51
ATOM     51  CG  TRP A   1      13.879  46.481  25.534  0.00  0.00    +0.000 C 
BRANCH  51  52
ATOM     52  CD  TRP A   1      12.678  47.284  25.365  0.00  0.00    +0.000 C 
ATOM     53  OE2 TRP A   1      12.372  48.179  26.168  0.00  0.00    +0.000 OA
ATOM     54  OE1 TRP A   1      11.917  46.930  24.384  0.00  0.00    +0.000 OA
ENDBRANCH  51  52
ENDBRANCH  50  51
ENDBRANCH  47  50
ENDBRANCH  45  47
ENDBRANCH  34  43
ENDBRANCH  33  34
ENDBRANCH  32  33
ENDBRANCH  30  32
ENDBRANCH  29  30
ENDBRANCH   1  29
BRANCH   1  55
ATOM     55  O   UNK A   2       6.899  48.360  28.816  0.00  0.00    +0.000 OA
BRANCH  55  56
ATOM     56  C   UNK A   2       7.297  47.223  29.187  0.00  0.00    +0.000 C 
ATOM     57  O   UNK A   2       8.333  46.692  28.741  0.00  0.00    +0.000 OA
BRANCH  56  58
ATOM     58  C   UNK A   2       6.486  46.515  30.227  0.00  0.00    +0.000 C 
BRANCH  58  59
ATOM     59  C   UNK A   2       7.128  45.230  30.791  0.00  0.00    +0.000 C 
BRANCH  59  60
ATOM     60  C   UNK A   2       8.402  45.541  31.597  0.00  0.00    +0.000 C 
ATOM     61  N   ALA A   3       9.167  44.540  32.032  0.00  0.00    +0.000 N 
ATOM     62  H   ALA A   3       9.999  44.803  32.597  0.00  0.00    +0.000 HD
ATOM     63  O   UNK A   2       8.696  46.711  31.863  0.00  0.00    +0.000 OA
BRANCH  61  64
ATOM     64  CA  ALA A   3       8.962  43.124  31.801  0.00  0.00    +0.000 C 
BRANCH  64  65
ATOM     65  CB  ALA A   3       9.191  42.305  33.062  0.00  0.00    +0.000 C 
ATOM     66  O   ALA A   3       9.903  41.314  33.066  0.00  0.00    +0.000 OA
ENDBRANCH  64  65
BRANCH  64  67
ATOM     67  C   ALA A   3       9.799  42.597  30.655  0.00  0.00    +0.000 C 
BRANCH  67  68
ATOM     68  O   ALA A   3       9.210  43.065  29.441  0.00  0.00    +0.000 OA
ATOM     69  H   ALA A   3       9.738  42.735  28.671  0.00  0.00    +0.000 HD
ENDBRANCH  67  68
ENDBRANCH  64  67
ENDBRANCH  61  64
ENDBRANCH  59  60
BRANCH  59  71
ATOM     70  C   TRP A   1       5.376  43.568  31.408  0.00  0.00    +0.000 C 
ATOM     71  N   UNK A   2       6.143  44.630  31.699  0.00  0.00    +0.000 N 
ATOM     72  H   UNK A   2       6.031  45.061  32.639  0.00  0.00    +0.000 HD
ATOM     73  O   TRP A   1       5.665  42.764  30.501  0.00  0.00    +0.000 OA
BRANCH  70  74
ATOM     74  CA  TRP A   1       4.113  43.388  32.246  0.00  0.00    +0.000 C 
BRANCH  74  75
ATOM     75  N   TRP A   1       4.114  44.249  33.424  0.00  0.00    +0.000 NA
ATOM     76  H   TRP A   1       3.602  45.154  33.405  0.00  0.00    +0.000 HD
ENDBRANCH  74  75
BRANCH  74  77
ATOM     77  CB  TRP A   1       2.924  43.670  31.244  0.00  0.00    +0.000 C 
ATOM     78  CG2 TRP A   1       1.577  43.533  31.894  0.00  0.00    +0.000 C 
BRANCH  77  79
ATOM     79  OG1 TRP A   1       3.053  45.003  30.703  0.00  0.00    +0.000 OA
ATOM     80  HG1 TRP A   1       3.025  45.662  31.442  0.00  0.00    +0.000 HD
ENDBRANCH  77  79
ENDBRANCH  74  77
ENDBRANCH  70  74
ENDBRANCH  59  71
ENDBRANCH  58  59
ENDBRANCH  56  58
ENDBRANCH  55  56
ENDBRANCH   1  55
TORSDOF 37
REMARK  Name = ../refined-set-2016/3pb7/3pb7_pocket.pdb
REMARK  138 active torsions:
REMARK  status: ('A' for Active; 'I' for Inactive)
REMARK    1  A    between atoms: _1  and  _3
REMARK    2  A    between atoms: _3  and  _4
REMARK    3  A    between atoms: _3  and  _6
REMARK    4  A    between atoms: _6  and  _7
REMARK    5  A    between atoms: _12  and  _14
REMARK    6  A    between atoms: _14  and  _15
REMARK    7  A    between atoms: _14  and  _17
REMARK    8  A    between atoms: _17  and  _18
REMARK    9  A    between atoms: _18  and  _19
REMARK   10  A    between atoms: _19  and  _20
REMARK   11  A    between atoms: _20  and  _21
REMARK   12  A    between atoms: _25  and  _27
REMARK   13  A    between atoms: _27  and  _28
REMARK   14  A    between atoms: _27  and  _30
REMARK   15  A    between atoms: _30  and  _31
REMARK   16  A    between atoms: _37  and  _39
REMARK   17  A    between atoms: _39  and  _40
REMARK   18  A    between atoms: _39  and  _42
REMARK   19  A    between atoms: _42  and  _43
REMARK   20  A    between atoms: _46  and  _48
REMARK   21  A    between atoms: _48  and  _49
REMARK   22  A    between atoms: _48  and  _51
REMARK   23  A    between atoms: _51  and  _52
REMARK   24  A    between atoms: _52  and  _54
REMARK   25  A    between atoms: _54  and  ZN_335
REMARK   26  A    between atoms: _55  and  _57
REMARK   27  A    between atoms: _57  and  _58
REMARK   28  A    between atoms: _57  and  _60
REMARK   29  A    between atoms: _60  and  _61
REMARK   30  A    between atoms: _63  and  _65
REMARK   31  A    between atoms: _65  and  _66
REMARK   32  A    between atoms: _65  and  _68
REMARK   33  A    between atoms: _68  and  _69
REMARK   34  A    between atoms: _69  and  _70
REMARK   35  A    between atoms: _73  and  _75
REMARK   36  A    between atoms: _75  and  _76
REMARK   37  A    between atoms: _75  and  _78
REMARK   38  A    between atoms: _78  and  _79
REMARK   39  A    between atoms: _79  and  _80
REMARK   40  A    between atoms: _80  and  _82
REMARK   41  A    between atoms: _82  and  ZN_335
REMARK   42  A    between atoms: _83  and  _85
REMARK   43  A    between atoms: _85  and  _86
REMARK   44  A    between atoms: _89  and  _91
REMARK   45  A    between atoms: _91  and  _92
REMARK   46  A    between atoms: _91  and  _94
REMARK   47  A    between atoms: _94  and  _95
REMARK   48  A    between atoms: _105  and  _107
REMARK   49  A    between atoms: _107  and  _108
REMARK   50  A    between atoms: _107  and  _110
REMARK   51  A    between atoms: _110  and  _111
REMARK   52  A    between atoms: _113  and  _115
REMARK   53  A    between atoms: _115  and  _116
REMARK   54  A    between atoms: _115  and  _118
REMARK   55  A    between atoms: _118  and  _119
REMARK   56  A    between atoms: _122  and  _124
REMARK   57  A    between atoms: _124  and  _125
REMARK   58  A    between atoms: _124  and  _127
REMARK   59  A    between atoms: _127  and  _128
REMARK   60  A    between atoms: _131  and  _133
REMARK   61  A    between atoms: _133  and  _134
REMARK   62  A    between atoms: _133  and  _136
REMARK   63  A    between atoms: _136  and  _137
REMARK   64  A    between atoms: _140  and  _142
REMARK   65  A    between atoms: _142  and  _143
REMARK   66  A    between atoms: _142  and  _145
REMARK   67  A    between atoms: _145  and  _146
REMARK   68  A    between atoms: _149  and  _151
REMARK   69  A    between atoms: _151  and  _152
REMARK   70  A    between atoms: _151  and  _154
REMARK   71  A    between atoms: _154  and  _155
REMARK   72  A    between atoms: _158  and  _160
REMARK   73  A    between atoms: _160  and  _161
REMARK   74  A    between atoms: _160  and  _163
REMARK   75  A    between atoms: _163  and  _164
REMARK   76  A    between atoms: _169  and  _171
REMARK   77  A    between atoms: _171  and  _172
REMARK   78  A    between atoms: _171  and  _174
REMARK   79  A    between atoms: _174  and  _175
REMARK   80  A    between atoms: _181  and  _183
REMARK   81  A    between atoms: _183  and  _184
REMARK   82  A    between atoms: _186  and  _188
REMARK   83  A    between atoms: _188  and  _189
REMARK   84  A    between atoms: _188  and  _191
REMARK   85  A    between atoms: _191  and  _192
REMARK   86  A    between atoms: _194  and  _196
REMARK   87  A    between atoms: _196  and  _197
REMARK   88  A    between atoms: _196  and  _199
REMARK   89  A    between atoms: _202  and  _204
REMARK   90  A    between atoms: _204  and  _205
REMARK   91  A    between atoms: _204  and  _207
REMARK   92  A    between atoms: _207  and  _208
REMARK   93  A    between atoms: _208  and  _209
REMARK   94  A    between atoms: _212  and  _214
REMARK   95  A    between atoms: _214  and  _215
REMARK   96  A    between atoms: _214  and  _217
REMARK   97  A    between atoms: _217  and  _218
REMARK   98  A    between atoms: _221  and  _223
REMARK   99  A    between atoms: _223  and  _224
REMARK  100  A    between atoms: _223  and  _226
REMARK  101  A    between atoms: _226  and  _227
REMARK  102  A    between atoms: _230  and  _232
REMARK  103  A    between atoms: _232  and  _233
REMARK  104  A    between atoms: _232  and  _235
REMARK  105  A    between atoms: _235  and  _236
REMARK  106  A    between atoms: _241  and  _243
REMARK  107  A    between atoms: _243  and  _244
REMARK  108  A    between atoms: _243  and  _246
REMARK  109  A    between atoms: _246  and  _247
REMARK  110  A    between atoms: _250  and  _252
REMARK  111  A    between atoms: _252  and  _253
REMARK  112  A    between atoms: _252  and  _255
REMARK  113  A    between atoms: _255  and  _256
REMARK  114  A    between atoms: _258  and  _260
REMARK  115  A    between atoms: _260  and  _261
REMARK  116  A    between atoms: _260  and  _263
REMARK  117  A    between atoms: _263  and  _264
REMARK  118  A    between atoms: _268  and  _269
REMARK  119  A    between atoms: _274  and  _276
REMARK  120  A    between atoms: _276  and  _277
REMARK  121  A    between atoms: _276  and  _279
REMARK  122  A    between atoms: _279  and  _280
REMARK  123  A    between atoms: _287  and  _288
REMARK  124  A    between atoms: _293  and  _295
REMARK  125  A    between atoms: _295  and  _296
REMARK  126  A    between atoms: _299  and  _301
REMARK  127  A    between atoms: _301  and  _302
REMARK  128  A    between atoms: _301  and  _304
REMARK  129  A    between atoms: _304  and  _305
REMARK  130  A    between atoms: _315  and  _317
REMARK  131  A    between atoms: _317  and  _318
REMARK  132  A    between atoms: _317  and  _320
REMARK  133  A    between atoms: _320  and  _321
REMARK  134  A    between atoms: _325  and  ZN_335
REMARK  135  A    between atoms: _326  and  _328
REMARK  136  A    between atoms: _328  and  _329
REMARK  137  A    between atoms: _328  and  _331
REMARK  138  A    between atoms: _331  and  _332
REMARK                            x       y       z     vdW  Elec       q    Type
REMARK                         _______ _______ _______ _____ _____    ______ ____
ROOT
ATOM      1  CG  TRP A   1      11.699  53.279  20.664  0.00  0.00    -0.002 A 
ATOM      2  CD2 TRP A   1      11.986  52.065  21.409  0.00  0.00    +0.013 A 
ATOM      3  CE3 TRP A   1      12.052  51.750  22.783  0.00  0.00    +0.001 A 
ATOM      4  CZ3 TRP A   1      12.381  50.436  23.196  0.00  0.00    +0.000 A 
ATOM      5  CH2 TRP A   1      12.606  49.425  22.220  0.00  0.00    +0.001 A 
ATOM      6  CZ2 TRP A   1      12.536  49.693  20.862  0.00  0.00    +0.017 A 
ATOM      7  CE2 TRP A   1      12.223  51.033  20.458  0.00  0.00    +0.056 A 
ATOM      8  NE1 TRP A   1      12.126  51.602  19.189  0.00  0.00    -0.352 N 
ATOM      9  HE1 TRP A   1      12.285  51.097  18.294  0.00  0.00    +0.166 HD
ATOM     10  CD1 TRP A   1      11.790  52.925  19.297  0.00  0.00    +0.068 A 
ENDROOT
BRANCH   1  11
ATOM     11  CB  TRP A   1      11.362  54.656  21.243  0.00  0.00    +0.053 C 
BRANCH  11  12
ATOM     12  CA  TRP A   1      12.544  55.635  21.276  0.00  0.00    +0.137 C 
BRANCH  12  13
ATOM     13  N   TRP A   1      12.126  56.871  21.947  0.00  0.00    -0.239 NA
ATOM     14  H   TRP A   1      11.120  57.013  22.171  0.00  0.00    +0.142 HD
ENDBRANCH  12  13
BRANCH  12  15
ATOM     15  C   TRP A   1      13.098  55.902  19.854  0.00  0.00    +0.224 C 
ATOM     16  O   TRP A   1      12.452  56.559  18.970  0.00  0.00    -0.287 OA
ENDBRANCH  12  15
ENDBRANCH  11  12
ENDBRANCH   1  11
TORSDOF 4
REMARK  Name = ../refined-set-2016/3pb7/3pb7_pocket.pdb
REMARK  138 active torsions:
REMARK  status: ('A' for Active; 'I' for Inactive)
REMARK    1  A    between atoms: _1  and  _3
REMARK    2  A    between atoms: _3  and  _4
REMARK    3  A    between atoms: _3  and  _6
REMARK    4  A    between atoms: _6  and  _7
REMARK    5  A    between atoms: _12  and  _14
REMARK    6  A    between atoms: _14  and  _15
REMARK    7  A    between atoms: _14  and  _17
REMARK    8  A    between atoms: _17  and  _18
REMARK    9  A    between atoms: _18  and  _19
REMARK   10  A    between atoms: _19  and  _20
REMARK   11  A    between atoms: _20  and  _21
REMARK   12  A    between atoms: _25  and  _27
REMARK   13  A    between atoms: _27  and  _28
REMARK   14  A    between atoms: _27  and  _30
REMARK   15  A    between atoms: _30  and  _31
REMARK   16  A    between atoms: _37  and  _39
REMARK   17  A    between atoms: _39  and  _40
REMARK   18  A    between atoms: _39  and  _42
REMARK   19  A    between atoms: _42  and  _43
REMARK   20  A    between atoms: _46  and  _48
REMARK   21  A    between atoms: _48  and  _49
REMARK   22  A    between atoms: _48  and  _51
REMARK   23  A    between atoms: _51  and  _52
REMARK   24  A    between atoms: _52  and  _54
REMARK   25  A    between atoms: _54  and  ZN_335
REMARK   26  A    between atoms: _55  and  _57
REMARK   27  A    between atoms: _57  and  _58
REMARK   28  A    between atoms: _57  and  _60
REMARK   29  A    between atoms: _60  and  _61
REMARK   30  A    between atoms: _63  and  _65
REMARK   31  A    between atoms: _65  and  _66
REMARK   32  A    between atoms: _65  and  _68
REMARK   33  A    between atoms: _68  and  _69
REMARK   34  A    between atoms: _69  and  _70
REMARK   35  A    between atoms: _73  and  _75
REMARK   36  A    between atoms: _75  and  _76
REMARK   37  A    between atoms: _75  and  _78
REMARK   38  A    between atoms: _78  and  _79
REMARK   39  A    between atoms: _79  and  _80
REMARK   40  A    between atoms: _80  and  _82
REMARK   41  A    between atoms: _82  and  ZN_335
REMARK   42  A    between atoms: _83  and  _85
REMARK   43  A    between atoms: _85  and  _86
REMARK   44  A    between atoms: _89  and  _91
REMARK   45  A    between atoms: _91  and  _92
REMARK   46  A    between atoms: _91  and  _94
REMARK   47  A    between atoms: _94  and  _95
REMARK   48  A    between atoms: _105  and  _107
REMARK   49  A    between atoms: _107  and  _108
REMARK   50  A    between atoms: _107  and  _110
REMARK   51  A    between atoms: _110  and  _111
REMARK   52  A    between atoms: _113  and  _115
REMARK   53  A    between atoms: _115  and  _116
REMARK   54  A    between atoms: _115  and  _118
REMARK   55  A    between atoms: _118  and  _119
REMARK   56  A    between atoms: _122  and  _124
REMARK   57  A    between atoms: _124  and  _125
REMARK   58  A    between atoms: _124  and  _127
REMARK   59  A    between atoms: _127  and  _128
REMARK   60  A    between atoms: _131  and  _133
REMARK   61  A    between atoms: _133  and  _134
REMARK   62  A    between atoms: _133  and  _136
REMARK   63  A    between atoms: _136  and  _137
REMARK   64  A    between atoms: _140  and  _142
REMARK   65  A    between atoms: _142  and  _143
REMARK   66  A    between atoms: _142  and  _145
REMARK   67  A    between atoms: _145  and  _146
REMARK   68  A    between atoms: _149  and  _151
REMARK   69  A    between atoms: _151  and  _152
REMARK   70  A    between atoms: _151  and  _154
REMARK   71  A    between atoms: _154  and  _155
REMARK   72  A    between atoms: _158  and  _160
REMARK   73  A    between atoms: _160  and  _161
REMARK   74  A    between atoms: _160  and  _163
REMARK   75  A    between atoms: _163  and  _164
REMARK   76  A    between atoms: _169  and  _171
REMARK   77  A    between atoms: _171  and  _172
REMARK   78  A    between atoms: _171  and  _174
REMARK   79  A    between atoms: _174  and  _175
REMARK   80  A    between atoms: _181  and  _183
REMARK   81  A    between atoms: _183  and  _184
REMARK   82  A    between atoms: _186  and  _188
REMARK   83  A    between atoms: _188  and  _189
REMARK   84  A    between atoms: _188  and  _191
REMARK   85  A    between atoms: _191  and  _192
REMARK   86  A    between atoms: _194  and  _196
REMARK   87  A    between atoms: _196  and  _197
REMARK   88  A    between atoms: _196  and  _199
REMARK   89  A    between atoms: _202  and  _204
REMARK   90  A    between atoms: _204  and  _205
REMARK   91  A    between atoms: _204  and  _207
REMARK   92  A    between atoms: _207  and  _208
REMARK   93  A    between atoms: _208  and  _209
REMARK   94  A    between atoms: _212  and  _214
REMARK   95  A    between atoms: _214  and  _215
REMARK   96  A    between atoms: _214  and  _217
REMARK   97  A    between atoms: _217  and  _218
REMARK   98  A    between atoms: _221  and  _223
REMARK   99  A    between atoms: _223  and  _224
REMARK  100  A    between atoms: _223  and  _226
REMARK  101  A    between atoms: _226  and  _227
REMARK  102  A    between atoms: _230  and  _232
REMARK  103  A    between atoms: _232  and  _233
REMARK  104  A    between atoms: _232  and  _235
REMARK  105  A    between atoms: _235  and  _236
REMARK  106  A    between atoms: _241  and  _243
REMARK  107  A    between atoms: _243  and  _244
REMARK  108  A    between atoms: _243  and  _246
REMARK  109  A    between atoms: _246  and  _247
REMARK  110  A    between atoms: _250  and  _252
REMARK  111  A    between atoms: _252  and  _253
REMARK  112  A    between atoms: _252  and  _255
REMARK  113  A    between atoms: _255  and  _256
REMARK  114  A    between atoms: _258  and  _260
REMARK  115  A    between atoms: _260  and  _261
REMARK  116  A    between atoms: _260  and  _263
REMARK  117  A    between atoms: _263  and  _264
REMARK  118  A    between atoms: _268  and  _269
REMARK  119  A    between atoms: _274  and  _276
REMARK  120  A    between atoms: _276  and  _277
REMARK  121  A    between atoms: _276  and  _279
REMARK  122  A    between atoms: _279  and  _280
REMARK  123  A    between atoms: _287  and  _288
REMARK  124  A    between atoms: _293  and  _295
REMARK  125  A    between atoms: _295  and  _296
REMARK  126  A    between atoms: _299  and  _301
REMARK  127  A    between atoms: _301  and  _302
REMARK  128  A    between atoms: _301  and  _304
REMARK  129  A    between atoms: _304  and  _305
REMARK  130  A    between atoms: _315  and  _317
REMARK  131  A    between atoms: _317  and  _318
REMARK  132  A    between atoms: _317  and  _320
REMARK  133  A    between atoms: _320  and  _321
REMARK  134  A    between atoms: _325  and  ZN_335
REMARK  135  A    between atoms: _326  and  _328
REMARK  136  A    between atoms: _328  and  _329
REMARK  137  A    between atoms: _328  and  _331
REMARK  138  A    between atoms: _331  and  _332
REMARK                            x       y       z     vdW  Elec       q    Type
REMARK                         _______ _______ _______ _____ _____    ______ ____
ROOT
ATOM      1  C   SER A   1      17.767  50.920  22.818  0.00  0.00    +0.241 C 
ATOM      2  N   LEU A   2      17.393  49.765  23.369  0.00  0.00    -0.298 N 
ATOM      3  H   LEU A   2      16.561  49.752  23.992  0.00  0.00    +0.150 HD
ATOM      4  O   SER A   1      18.856  51.052  22.215  0.00  0.00    -0.274 OA
ENDROOT
BRANCH   1   5
ATOM      5  CA  SER A   1      16.769  52.046  22.941  0.00  0.00    +0.174 C 
BRANCH   5   6
ATOM      6  N   SER A   1      17.555  53.321  22.750  0.00  0.00    -0.236 NA
ATOM      7  H   SER A   1      18.590  53.236  22.698  0.00  0.00    +0.142 HD
ENDBRANCH   5   6
BRANCH   5   8
ATOM      8  CB  SER A   1      15.649  51.854  21.852  0.00  0.00    +0.163 C 
BRANCH   8   9
ATOM      9  OG  SER A   1      16.114  51.681  20.488  0.00  0.00    -0.380 OA
ATOM     10  H   SER A   1      16.632  52.479  20.214  0.00  0.00    +0.211 HD
ENDBRANCH   8   9
ENDBRANCH   5   8
ENDBRANCH   1   5
BRANCH   2  11
ATOM     11  CA  LEU A   2      18.111  48.518  23.128  0.00  0.00    +0.137 C 
BRANCH  11  12
ATOM     12  C   LEU A   2      19.561  48.625  23.473  0.00  0.00    +0.227 C 
ATOM     13  O   LEU A   2      20.428  48.005  22.847  0.00  0.00    -0.286 OA
ENDBRANCH  11  12
BRANCH  11  14
ATOM     14  CB  LEU A   2      17.970  48.017  21.660  0.00  0.00    +0.028 C 
BRANCH  14  15
ATOM     15  CG  LEU A   2      16.551  48.038  21.116  0.00  0.00    +0.002 C 
ATOM     16  CD2 LEU A   2      15.594  47.335  22.025  0.00  0.00    +0.000 C 
ATOM     17  CD1 LEU A   2      16.491  47.401  19.705  0.00  0.00    +0.000 C 
ENDBRANCH  14  15
ENDBRANCH  11  14
ENDBRANCH   2  11
TORSDOF 8
REMARK  Name = ../refined-set-2016/3pb7/3pb7_pocket.pdb
REMARK  138 active torsions:
REMARK  status: ('A' for Active; 'I' for Inactive)
REMARK    1  A    between atoms: _1  and  _3
REMARK    2  A    between atoms: _3  and  _4
REMARK    3  A    between atoms: _3  and  _6
REMARK    4  A    between atoms: _6  and  _7
REMARK    5  A    between atoms: _12  and  _14
REMARK    6  A    between atoms: _14  and  _15
REMARK    7  A    between atoms: _14  and  _17
REMARK    8  A    between atoms: _17  and  _18
REMARK    9  A    between atoms: _18  and  _19
REMARK   10  A    between atoms: _19  and  _20
REMARK   11  A    between atoms: _20  and  _21
REMARK   12  A    between atoms: _25  and  _27
REMARK   13  A    between atoms: _27  and  _28
REMARK   14  A    between atoms: _27  and  _30
REMARK   15  A    between atoms: _30  and  _31
REMARK   16  A    between atoms: _37  and  _39
REMARK   17  A    between atoms: _39  and  _40
REMARK   18  A    between atoms: _39  and  _42
REMARK   19  A    between atoms: _42  and  _43
REMARK   20  A    between atoms: _46  and  _48
REMARK   21  A    between atoms: _48  and  _49
REMARK   22  A    between atoms: _48  and  _51
REMARK   23  A    between atoms: _51  and  _52
REMARK   24  A    between atoms: _52  and  _54
REMARK   25  A    between atoms: _54  and  ZN_335
REMARK   26  A    between atoms: _55  and  _57
REMARK   27  A    between atoms: _57  and  _58
REMARK   28  A    between atoms: _57  and  _60
REMARK   29  A    between atoms: _60  and  _61
REMARK   30  A    between atoms: _63  and  _65
REMARK   31  A    between atoms: _65  and  _66
REMARK   32  A    between atoms: _65  and  _68
REMARK   33  A    between atoms: _68  and  _69
REMARK   34  A    between atoms: _69  and  _70
REMARK   35  A    between atoms: _73  and  _75
REMARK   36  A    between atoms: _75  and  _76
REMARK   37  A    between atoms: _75  and  _78
REMARK   38  A    between atoms: _78  and  _79
REMARK   39  A    between atoms: _79  and  _80
REMARK   40  A    between atoms: _80  and  _82
REMARK   41  A    between atoms: _82  and  ZN_335
REMARK   42  A    between atoms: _83  and  _85
REMARK   43  A    between atoms: _85  and  _86
REMARK   44  A    between atoms: _89  and  _91
REMARK   45  A    between atoms: _91  and  _92
REMARK   46  A    between atoms: _91  and  _94
REMARK   47  A    between atoms: _94  and  _95
REMARK   48  A    between atoms: _105  and  _107
REMARK   49  A    between atoms: _107  and  _108
REMARK   50  A    between atoms: _107  and  _110
REMARK   51  A    between atoms: _110  and  _111
REMARK   52  A    between atoms: _113  and  _115
REMARK   53  A    between atoms: _115  and  _116
REMARK   54  A    between atoms: _115  and  _118
REMARK   55  A    between atoms: _118  and  _119
REMARK   56  A    between atoms: _122  and  _124
REMARK   57  A    between atoms: _124  and  _125
REMARK   58  A    between atoms: _124  and  _127
REMARK   59  A    between atoms: _127  and  _128
REMARK   60  A    between atoms: _131  and  _133
REMARK   61  A    between atoms: _133  and  _134
REMARK   62  A    between atoms: _133  and  _136
REMARK   63  A    between atoms: _136  and  _137
REMARK   64  A    between atoms: _140  and  _142
REMARK   65  A    between atoms: _142  and  _143
REMARK   66  A    between atoms: _142  and  _145
REMARK   67  A    between atoms: _145  and  _146
REMARK   68  A    between atoms: _149  and  _151
REMARK   69  A    between atoms: _151  and  _152
REMARK   70  A    between atoms: _151  and  _154
REMARK   71  A    between atoms: _154  and  _155
REMARK   72  A    between atoms: _158  and  _160
REMARK   73  A    between atoms: _160  and  _161
REMARK   74  A    between atoms: _160  and  _163
REMARK   75  A    between atoms: _163  and  _164
REMARK   76  A    between atoms: _169  and  _171
REMARK   77  A    between atoms: _171  and  _172
REMARK   78  A    between atoms: _171  and  _174
REMARK   79  A    between atoms: _174  and  _175
REMARK   80  A    between atoms: _181  and  _183
REMARK   81  A    between atoms: _183  and  _184
REMARK   82  A    between atoms: _186  and  _188
REMARK   83  A    between atoms: _188  and  _189
REMARK   84  A    between atoms: _188  and  _191
REMARK   85  A    between atoms: _191  and  _192
REMARK   86  A    between atoms: _194  and  _196
REMARK   87  A    between atoms: _196  and  _197
REMARK   88  A    between atoms: _196  and  _199
REMARK   89  A    between atoms: _202  and  _204
REMARK   90  A    between atoms: _204  and  _205
REMARK   91  A    between atoms: _204  and  _207
REMARK   92  A    between atoms: _207  and  _208
REMARK   93  A    between atoms: _208  and  _209
REMARK   94  A    between atoms: _212  and  _214
REMARK   95  A    between atoms: _214  and  _215
REMARK   96  A    between atoms: _214  and  _217
REMARK   97  A    between atoms: _217  and  _218
REMARK   98  A    between atoms: _221  and  _223
REMARK   99  A    between atoms: _223  and  _224
REMARK  100  A    between atoms: _223  and  _226
REMARK  101  A    between atoms: _226  and  _227
REMARK  102  A    between atoms: _230  and  _232
REMARK  103  A    between atoms: _232  and  _233
REMARK  104  A    between atoms: _232  and  _235
REMARK  105  A    between atoms: _235  and  _236
REMARK  106  A    between atoms: _241  and  _243
REMARK  107  A    between atoms: _243  and  _244
REMARK  108  A    between atoms: _243  and  _246
REMARK  109  A    between atoms: _246  and  _247
REMARK  110  A    between atoms: _250  and  _252
REMARK  111  A    between atoms: _252  and  _253
REMARK  112  A    between atoms: _252  and  _255
REMARK  113  A    between atoms: _255  and  _256
REMARK  114  A    between atoms: _258  and  _260
REMARK  115  A    between atoms: _260  and  _261
REMARK  116  A    between atoms: _260  and  _263
REMARK  117  A    between atoms: _263  and  _264
REMARK  118  A    between atoms: _268  and  _269
REMARK  119  A    between atoms: _274  and  _276
REMARK  120  A    between atoms: _276  and  _277
REMARK  121  A    between atoms: _276  and  _279
REMARK  122  A    between atoms: _279  and  _280
REMARK  123  A    between atoms: _287  and  _288
REMARK  124  A    between atoms: _293  and  _295
REMARK  125  A    between atoms: _295  and  _296
REMARK  126  A    between atoms: _299  and  _301
REMARK  127  A    between atoms: _301  and  _302
REMARK  128  A    between atoms: _301  and  _304
REMARK  129  A    between atoms: _304  and  _305
REMARK  130  A    between atoms: _315  and  _317
REMARK  131  A    between atoms: _317  and  _318
REMARK  132  A    between atoms: _317  and  _320
REMARK  133  A    between atoms: _320  and  _321
REMARK  134  A    between atoms: _325  and  ZN_335
REMARK  135  A    between atoms: _326  and  _328
REMARK  136  A    between atoms: _328  and  _329
REMARK  137  A    between atoms: _328  and  _331
REMARK  138  A    between atoms: _331  and  _332
REMARK                            x       y       z     vdW  Elec       q    Type
REMARK                         _______ _______ _______ _____ _____    ______ ____
ROOT
ATOM      1  C   LEU A   2       9.235  38.830  26.449  0.00  0.00    +0.241 C 
ATOM      2  O   LEU A   2      10.175  39.403  27.053  0.00  0.00    -0.273 OA
ATOM      3  N   ASP A   3       8.117  39.435  26.089  0.00  0.00    -0.297 N 
ATOM      4  H   ASP A   3       7.393  38.916  25.552  0.00  0.00    +0.150 HD
ENDROOT
BRANCH   3   5
ATOM      5  CA  ASP A   3       7.901  40.834  26.447  0.00  0.00    +0.160 C 
BRANCH   5   6
ATOM      6  C   ASP A   3       6.403  41.065  26.556  0.00  0.00    +0.241 C 
ATOM      7  N   LEU A   4       6.032  41.964  27.465  0.00  0.00    -0.298 N 
ATOM      8  H   LEU A   4       6.744  42.311  28.139  0.00  0.00    +0.150 HD
ATOM      9  O   ASP A   3       5.590  40.474  25.843  0.00  0.00    -0.273 OA
BRANCH   7  10
ATOM     10  CA  LEU A   4       4.646  42.496  27.562  0.00  0.00    +0.137 C 
BRANCH  10  11
ATOM     11  C   LEU A   4       3.714  41.303  27.874  0.00  0.00    +0.227 C 
ATOM     12  O   LEU A   4       2.734  41.022  27.145  0.00  0.00    -0.286 OA
ENDBRANCH  10  11
BRANCH  10  13
ATOM     13  CB  LEU A   4       4.182  43.267  26.329  0.00  0.00    +0.028 C 
BRANCH  13  14
ATOM     14  CG  LEU A   4       5.084  44.436  25.925  0.00  0.00    +0.002 C 
ATOM     15  CD2 LEU A   4       5.426  45.319  27.107  0.00  0.00    +0.000 C 
ATOM     16  CD1 LEU A   4       4.409  45.227  24.816  0.00  0.00    +0.000 C 
ENDBRANCH  13  14
ENDBRANCH  10  13
ENDBRANCH   7  10
ENDBRANCH   5   6
BRANCH   5  17
ATOM     17  CB  ASP A   3       8.573  41.694  25.358  0.00  0.00    +0.143 C 
BRANCH  17  18
ATOM     18  CG  ASP A   3       8.810  43.162  25.775  0.00  0.00    +0.367 C 
ATOM     19  OD2 ASP A   3       8.388  43.584  26.858  0.00  0.00    -0.246 OA
ATOM     20  OD1 ASP A   3       9.486  43.941  25.010  0.00  0.00    -0.246 OA
ENDBRANCH  17  18
ENDBRANCH   5  17
ENDBRANCH   3   5
BRANCH   1  21
ATOM     21  CA  LEU A   2       9.351  37.349  26.106  0.00  0.00    +0.149 C 
BRANCH  21  23
ATOM     22  C   LEU A   1      10.694  37.110  24.072  0.00  0.00    +0.238 C 
ATOM     23  N   LEU A   2      10.634  37.149  25.400  0.00  0.00    -0.297 N 
ATOM     24  H   LEU A   2      11.508  37.036  25.953  0.00  0.00    +0.150 HD
ATOM     25  O   LEU A   1       9.716  37.178  23.341  0.00  0.00    -0.274 OA
BRANCH  22  26
ATOM     26  CA  LEU A   1      12.113  36.967  23.479  0.00  0.00    +0.145 C 
BRANCH  26  27
ATOM     27  N   LEU A   1      12.159  35.734  22.689  0.00  0.00    -0.238 NA
ATOM     28  H   LEU A   1      11.728  35.725  21.743  0.00  0.00    +0.142 HD
ENDBRANCH  26  27
BRANCH  26  29
ATOM     29  CB  LEU A   1      12.441  38.118  22.572  0.00  0.00    +0.026 C 
BRANCH  29  30
ATOM     30  CG  LEU A   1      12.318  39.517  23.302  0.00  0.00    +0.002 C 
ATOM     31  CD2 LEU A   1      13.351  39.642  24.494  0.00  0.00    +0.000 C 
ATOM     32  CD1 LEU A   1      12.623  40.577  22.276  0.00  0.00    +0.000 C 
ENDBRANCH  29  30
ENDBRANCH  26  29
ENDBRANCH  22  26
ENDBRANCH  21  23
BRANCH  21  33
ATOM     33  CB  LEU A   2       9.380  36.583  27.409  0.00  0.00    +0.029 C 
BRANCH  33  34
ATOM     34  CG  LEU A   2       9.213  35.057  27.394  0.00  0.00    +0.002 C 
ATOM     35  CD2 LEU A   2       9.098  34.568  28.786  0.00  0.00    +0.000 C 
ATOM     36  CD1 LEU A   2      10.323  34.291  26.596  0.00  0.00    +0.000 C 
ENDBRANCH  33  34
ENDBRANCH  21  33
ENDBRANCH   1  21
TORSDOF 16
REMARK  Name = ../refined-set-2016/3pb7/3pb7_pocket.pdb
REMARK  138 active torsions:
REMARK  status: ('A' for Active; 'I' for Inactive)
REMARK    1  A    between atoms: _1  and  _3
REMARK    2  A    between atoms: _3  and  _4
REMARK    3  A    between atoms: _3  and  _6
REMARK    4  A    between atoms: _6  and  _7
REMARK    5  A    between atoms: _12  and  _14
REMARK    6  A    between atoms: _14  and  _15
REMARK    7  A    between atoms: _14  and  _17
REMARK    8  A    between atoms: _17  and  _18
REMARK    9  A    between atoms: _18  and  _19
REMARK   10  A    between atoms: _19  and  _20
REMARK   11  A    between atoms: _20  and  _21
REMARK   12  A    between atoms: _25  and  _27
REMARK   13  A    between atoms: _27  and  _28
REMARK   14  A    between atoms: _27  and  _30
REMARK   15  A    between atoms: _30  and  _31
REMARK   16  A    between atoms: _37  and  _39
REMARK   17  A    between atoms: _39  and  _40
REMARK   18  A    between atoms: _39  and  _42
REMARK   19  A    between atoms: _42  and  _43
REMARK   20  A    between atoms: _46  and  _48
REMARK   21  A    between atoms: _48  and  _49
REMARK   22  A    between atoms: _48  and  _51
REMARK   23  A    between atoms: _51  and  _52
REMARK   24  A    between atoms: _52  and  _54
REMARK   25  A    between atoms: _54  and  ZN_335
REMARK   26  A    between atoms: _55  and  _57
REMARK   27  A    between atoms: _57  and  _58
REMARK   28  A    between atoms: _57  and  _60
REMARK   29  A    between atoms: _60  and  _61
REMARK   30  A    between atoms: _63  and  _65
REMARK   31  A    between atoms: _65  and  _66
REMARK   32  A    between atoms: _65  and  _68
REMARK   33  A    between atoms: _68  and  _69
REMARK   34  A    between atoms: _69  and  _70
REMARK   35  A    between atoms: _73  and  _75
REMARK   36  A    between atoms: _75  and  _76
REMARK   37  A    between atoms: _75  and  _78
REMARK   38  A    between atoms: _78  and  _79
REMARK   39  A    between atoms: _79  and  _80
REMARK   40  A    between atoms: _80  and  _82
REMARK   41  A    between atoms: _82  and  ZN_335
REMARK   42  A    between atoms: _83  and  _85
REMARK   43  A    between atoms: _85  and  _86
REMARK   44  A    between atoms: _89  and  _91
REMARK   45  A    between atoms: _91  and  _92
REMARK   46  A    between atoms: _91  and  _94
REMARK   47  A    between atoms: _94  and  _95
REMARK   48  A    between atoms: _105  and  _107
REMARK   49  A    between atoms: _107  and  _108
REMARK   50  A    between atoms: _107  and  _110
REMARK   51  A    between atoms: _110  and  _111
REMARK   52  A    between atoms: _113  and  _115
REMARK   53  A    between atoms: _115  and  _116
REMARK   54  A    between atoms: _115  and  _118
REMARK   55  A    between atoms: _118  and  _119
REMARK   56  A    between atoms: _122  and  _124
REMARK   57  A    between atoms: _124  and  _125
REMARK   58  A    between atoms: _124  and  _127
REMARK   59  A    between atoms: _127  and  _128
REMARK   60  A    between atoms: _131  and  _133
REMARK   61  A    between atoms: _133  and  _134
REMARK   62  A    between atoms: _133  and  _136
REMARK   63  A    between atoms: _136  and  _137
REMARK   64  A    between atoms: _140  and  _142
REMARK   65  A    between atoms: _142  and  _143
REMARK   66  A    between atoms: _142  and  _145
REMARK   67  A    between atoms: _145  and  _146
REMARK   68  A    between atoms: _149  and  _151
REMARK   69  A    between atoms: _151  and  _152
REMARK   70  A    between atoms: _151  and  _154
REMARK   71  A    between atoms: _154  and  _155
REMARK   72  A    between atoms: _158  and  _160
REMARK   73  A    between atoms: _160  and  _161
REMARK   74  A    between atoms: _160  and  _163
REMARK   75  A    between atoms: _163  and  _164
REMARK   76  A    between atoms: _169  and  _171
REMARK   77  A    between atoms: _171  and  _172
REMARK   78  A    between atoms: _171  and  _174
REMARK   79  A    between atoms: _174  and  _175
REMARK   80  A    between atoms: _181  and  _183
REMARK   81  A    between atoms: _183  and  _184
REMARK   82  A    between atoms: _186  and  _188
REMARK   83  A    between atoms: _188  and  _189
REMARK   84  A    between atoms: _188  and  _191
REMARK   85  A    between atoms: _191  and  _192
REMARK   86  A    between atoms: _194  and  _196
REMARK   87  A    between atoms: _196  and  _197
REMARK   88  A    between atoms: _196  and  _199
REMARK   89  A    between atoms: _202  and  _204
REMARK   90  A    between atoms: _204  and  _205
REMARK   91  A    between atoms: _204  and  _207
REMARK   92  A    between atoms: _207  and  _208
REMARK   93  A    between atoms: _208  and  _209
REMARK   94  A    between atoms: _212  and  _214
REMARK   95  A    between atoms: _214  and  _215
REMARK   96  A    between atoms: _214  and  _217
REMARK   97  A    between atoms: _217  and  _218
REMARK   98  A    between atoms: _221  and  _223
REMARK   99  A    between atoms: _223  and  _224
REMARK  100  A    between atoms: _223  and  _226
REMARK  101  A    between atoms: _226  and  _227
REMARK  102  A    between atoms: _230  and  _232
REMARK  103  A    between atoms: _232  and  _233
REMARK  104  A    between atoms: _232  and  _235
REMARK  105  A    between atoms: _235  and  _236
REMARK  106  A    between atoms: _241  and  _243
REMARK  107  A    between atoms: _243  and  _244
REMARK  108  A    between atoms: _243  and  _246
REMARK  109  A    between atoms: _246  and  _247
REMARK  110  A    between atoms: _250  and  _252
REMARK  111  A    between atoms: _252  and  _253
REMARK  112  A    between atoms: _252  and  _255
REMARK  113  A    between atoms: _255  and  _256
REMARK  114  A    between atoms: _258  and  _260
REMARK  115  A    between atoms: _260  and  _261
REMARK  116  A    between atoms: _260  and  _263
REMARK  117  A    between atoms: _263  and  _264
REMARK  118  A    between atoms: _268  and  _269
REMARK  119  A    between atoms: _274  and  _276
REMARK  120  A    between atoms: _276  and  _277
REMARK  121  A    between atoms: _276  and  _279
REMARK  122  A    between atoms: _279  and  _280
REMARK  123  A    between atoms: _287  and  _288
REMARK  124  A    between atoms: _293  and  _295
REMARK  125  A    between atoms: _295  and  _296
REMARK  126  A    between atoms: _299  and  _301
REMARK  127  A    between atoms: _301  and  _302
REMARK  128  A    between atoms: _301  and  _304
REMARK  129  A    between atoms: _304  and  _305
REMARK  130  A    between atoms: _315  and  _317
REMARK  131  A    between atoms: _317  and  _318
REMARK  132  A    between atoms: _317  and  _320
REMARK  133  A    between atoms: _320  and  _321
REMARK  134  A    between atoms: _325  and  ZN_335
REMARK  135  A    between atoms: _326  and  _328
REMARK  136  A    between atoms: _328  and  _329
REMARK  137  A    between atoms: _328  and  _331
REMARK  138  A    between atoms: _331  and  _332
REMARK                            x       y       z     vdW  Elec       q    Type
REMARK                         _______ _______ _______ _____ _____    ______ ____
ROOT
ATOM      1  CB  HIS A   1       7.147  38.423  14.592  0.00  0.00    +0.072 C 
ENDROOT
BRANCH   1   2
ATOM      2  CG  HIS A   1       6.104  39.098  15.404  0.00  0.00    +0.082 A 
ATOM      3  CD2 HIS A   1       5.477  38.744  16.558  0.00  0.00    +0.115 A 
ATOM      4  NE2 HIS A   1       4.546  39.721  16.823  0.00  0.00    -0.221 NA
ATOM      5  CE1 HIS A   1       4.599  40.637  15.863  0.00  0.00    +0.199 A 
ATOM      6  ND1 HIS A   1       5.541  40.284  14.998  0.00  0.00    -0.227 NA
ENDBRANCH   1   2
BRANCH   1   7
ATOM      7  CA  HIS A   1       6.519  37.465  13.536  0.00  0.00    +0.139 C 
BRANCH   7   8
ATOM      8  N   HIS A   1       5.843  36.361  14.157  0.00  0.00    -0.239 NA
ATOM      9  H   HIS A   1       6.209  35.999  15.061  0.00  0.00    +0.142 HD
ENDBRANCH   7   8
BRANCH   7  10
ATOM     10  C   HIS A   1       7.564  37.057  12.508  0.00  0.00    +0.224 C 
ATOM     11  O   HIS A   1       7.961  37.934  11.711  0.00  0.00    -0.287 OA
ENDBRANCH   7  10
ENDBRANCH   1   7
TORSDOF 4
REMARK  Name = ../refined-set-2016/3pb7/3pb7_pocket.pdb
REMARK  138 active torsions:
REMARK  status: ('A' for Active; 'I' for Inactive)
REMARK    1  A    between atoms: _1  and  _3
REMARK    2  A    between atoms: _3  and  _4
REMARK    3  A    between atoms: _3  and  _6
REMARK    4  A    between atoms: _6  and  _7
REMARK    5  A    between atoms: _12  and  _14
REMARK    6  A    between atoms: _14  and  _15
REMARK    7  A    between atoms: _14  and  _17
REMARK    8  A    between atoms: _17  and  _18
REMARK    9  A    between atoms: _18  and  _19
REMARK   10  A    between atoms: _19  and  _20
REMARK   11  A    between atoms: _20  and  _21
REMARK   12  A    between atoms: _25  and  _27
REMARK   13  A    between atoms: _27  and  _28
REMARK   14  A    between atoms: _27  and  _30
REMARK   15  A    between atoms: _30  and  _31
REMARK   16  A    between atoms: _37  and  _39
REMARK   17  A    between atoms: _39  and  _40
REMARK   18  A    between atoms: _39  and  _42
REMARK   19  A    between atoms: _42  and  _43
REMARK   20  A    between atoms: _46  and  _48
REMARK   21  A    between atoms: _48  and  _49
REMARK   22  A    between atoms: _48  and  _51
REMARK   23  A    between atoms: _51  and  _52
REMARK   24  A    between atoms: _52  and  _54
REMARK   25  A    between atoms: _54  and  ZN_335
REMARK   26  A    between atoms: _55  and  _57
REMARK   27  A    between atoms: _57  and  _58
REMARK   28  A    between atoms: _57  and  _60
REMARK   29  A    between atoms: _60  and  _61
REMARK   30  A    between atoms: _63  and  _65
REMARK   31  A    between atoms: _65  and  _66
REMARK   32  A    between atoms: _65  and  _68
REMARK   33  A    between atoms: _68  and  _69
REMARK   34  A    between atoms: _69  and  _70
REMARK   35  A    between atoms: _73  and  _75
REMARK   36  A    between atoms: _75  and  _76
REMARK   37  A    between atoms: _75  and  _78
REMARK   38  A    between atoms: _78  and  _79
REMARK   39  A    between atoms: _79  and  _80
REMARK   40  A    between atoms: _80  and  _82
REMARK   41  A    between atoms: _82  and  ZN_335
REMARK   42  A    between atoms: _83  and  _85
REMARK   43  A    between atoms: _85  and  _86
REMARK   44  A    between atoms: _89  and  _91
REMARK   45  A    between atoms: _91  and  _92
REMARK   46  A    between atoms: _91  and  _94
REMARK   47  A    between atoms: _94  and  _95
REMARK   48  A    between atoms: _105  and  _107
REMARK   49  A    between atoms: _107  and  _108
REMARK   50  A    between atoms: _107  and  _110
REMARK   51  A    between atoms: _110  and  _111
REMARK   52  A    between atoms: _113  and  _115
REMARK   53  A    between atoms: _115  and  _116
REMARK   54  A    between atoms: _115  and  _118
REMARK   55  A    between atoms: _118  and  _119
REMARK   56  A    between atoms: _122  and  _124
REMARK   57  A    between atoms: _124  and  _125
REMARK   58  A    between atoms: _124  and  _127
REMARK   59  A    between atoms: _127  and  _128
REMARK   60  A    between atoms: _131  and  _133
REMARK   61  A    between atoms: _133  and  _134
REMARK   62  A    between atoms: _133  and  _136
REMARK   63  A    between atoms: _136  and  _137
REMARK   64  A    between atoms: _140  and  _142
REMARK   65  A    between atoms: _142  and  _143
REMARK   66  A    between atoms: _142  and  _145
REMARK   67  A    between atoms: _145  and  _146
REMARK   68  A    between atoms: _149  and  _151
REMARK   69  A    between atoms: _151  and  _152
REMARK   70  A    between atoms: _151  and  _154
REMARK   71  A    between atoms: _154  and  _155
REMARK   72  A    between atoms: _158  and  _160
REMARK   73  A    between atoms: _160  and  _161
REMARK   74  A    between atoms: _160  and  _163
REMARK   75  A    between atoms: _163  and  _164
REMARK   76  A    between atoms: _169  and  _171
REMARK   77  A    between atoms: _171  and  _172
REMARK   78  A    between atoms: _171  and  _174
REMARK   79  A    between atoms: _174  and  _175
REMARK   80  A    between atoms: _181  and  _183
REMARK   81  A    between atoms: _183  and  _184
REMARK   82  A    between atoms: _186  and  _188
REMARK   83  A    between atoms: _188  and  _189
REMARK   84  A    between atoms: _188  and  _191
REMARK   85  A    between atoms: _191  and  _192
REMARK   86  A    between atoms: _194  and  _196
REMARK   87  A    between atoms: _196  and  _197
REMARK   88  A    between atoms: _196  and  _199
REMARK   89  A    between atoms: _202  and  _204
REMARK   90  A    between atoms: _204  and  _205
REMARK   91  A    between atoms: _204  and  _207
REMARK   92  A    between atoms: _207  and  _208
REMARK   93  A    between atoms: _208  and  _209
REMARK   94  A    between atoms: _212  and  _214
REMARK   95  A    between atoms: _214  and  _215
REMARK   96  A    between atoms: _214  and  _217
REMARK   97  A    between atoms: _217  and  _218
REMARK   98  A    between atoms: _221  and  _223
REMARK   99  A    between atoms: _223  and  _224
REMARK  100  A    between atoms: _223  and  _226
REMARK  101  A    between atoms: _226  and  _227
REMARK  102  A    between atoms: _230  and  _232
REMARK  103  A    between atoms: _232  and  _233
REMARK  104  A    between atoms: _232  and  _235
REMARK  105  A    between atoms: _235  and  _236
REMARK  106  A    between atoms: _241  and  _243
REMARK  107  A    between atoms: _243  and  _244
REMARK  108  A    between atoms: _243  and  _246
REMARK  109  A    between atoms: _246  and  _247
REMARK  110  A    between atoms: _250  and  _252
REMARK  111  A    between atoms: _252  and  _253
REMARK  112  A    between atoms: _252  and  _255
REMARK  113  A    between atoms: _255  and  _256
REMARK  114  A    between atoms: _258  and  _260
REMARK  115  A    between atoms: _260  and  _261
REMARK  116  A    between atoms: _260  and  _263
REMARK  117  A    between atoms: _263  and  _264
REMARK  118  A    between atoms: _268  and  _269
REMARK  119  A    between atoms: _274  and  _276
REMARK  120  A    between atoms: _276  and  _277
REMARK  121  A    between atoms: _276  and  _279
REMARK  122  A    between atoms: _279  and  _280
REMARK  123  A    between atoms: _287  and  _288
REMARK  124  A    between atoms: _293  and  _295
REMARK  125  A    between atoms: _295  and  _296
REMARK  126  A    between atoms: _299  and  _301
REMARK  127  A    between atoms: _301  and  _302
REMARK  128  A    between atoms: _301  and  _304
REMARK  129  A    between atoms: _304  and  _305
REMARK  130  A    between atoms: _315  and  _317
REMARK  131  A    between atoms: _317  and  _318
REMARK  132  A    between atoms: _317  and  _320
REMARK  133  A    between atoms: _320  and  _321
REMARK  134  A    between atoms: _325  and  ZN_335
REMARK  135  A    between atoms: _326  and  _328
REMARK  136  A    between atoms: _328  and  _329
REMARK  137  A    between atoms: _328  and  _331
REMARK  138  A    between atoms: _331  and  _332
REMARK                            x       y       z     vdW  Elec       q    Type
REMARK                         _______ _______ _______ _____ _____    ______ ____
ROOT
ATOM      1  CA  VAL A   4       7.717  45.541  16.997  0.00  0.00    +0.149 C 
ENDROOT
BRANCH   1   3
ATOM      2  C   SER A   3       6.652  45.187  14.831  0.00  0.00    +0.243 C 
ATOM      3  N   VAL A   4       7.422  44.722  15.816  0.00  0.00    -0.297 N 
ATOM      4  H   VAL A   4       7.820  43.764  15.746  0.00  0.00    +0.150 HD
ATOM      5  O   SER A   3       6.208  46.352  14.795  0.00  0.00    -0.273 OA
BRANCH   2   6
ATOM      6  CA  SER A   3       6.389  44.200  13.710  0.00  0.00    +0.178 C 
BRANCH   6   9
ATOM      7  C   GLY A   2       4.024  44.250  13.223  0.00  0.00    +0.243 C 
ATOM      8  O   GLY A   2       3.782  43.521  14.169  0.00  0.00    -0.273 OA
ATOM      9  N   SER A   3       5.244  44.613  12.902  0.00  0.00    -0.295 N 
ATOM     10  H   SER A   3       5.398  45.203  12.060  0.00  0.00    +0.150 HD
BRANCH   7  11
ATOM     11  CA  GLY A   2       2.907  44.849  12.397  0.00  0.00    +0.176 C 
BRANCH  11  13
ATOM     12  C   PHE A   1       0.495  44.425  12.478  0.00  0.00    +0.239 C 
ATOM     13  N   GLY A   2       1.750  44.006  12.620  0.00  0.00    -0.296 N 
ATOM     14  H   GLY A   2       1.909  43.019  12.907  0.00  0.00    +0.150 HD
ATOM     15  O   PHE A   1       0.180  45.553  12.101  0.00  0.00    -0.274 OA
BRANCH  12  16
ATOM     16  CA  PHE A   1      -0.585  43.404  12.767  0.00  0.00    +0.149 C 
BRANCH  16  17
ATOM     17  N   PHE A   1      -0.132  42.063  13.054  0.00  0.00    -0.238 NA
ATOM     18  H   PHE A   1      -0.088  41.746  14.043  0.00  0.00    +0.142 HD
ENDBRANCH  16  17
BRANCH  16  19
ATOM     19  CB  PHE A   1      -1.340  43.923  13.988  0.00  0.00    +0.053 C 
BRANCH  19  20
ATOM     20  CG  PHE A   1      -2.571  43.106  14.351  0.00  0.00    -0.020 A 
ATOM     21  CD2 PHE A   1      -2.937  42.962  15.703  0.00  0.00    -0.004 A 
ATOM     22  CE2 PHE A   1      -4.077  42.244  16.054  0.00  0.00    -0.000 A 
ATOM     23  CZ  PHE A   1      -4.861  41.645  15.038  0.00  0.00    -0.000 A 
ATOM     24  CE1 PHE A   1      -4.499  41.779  13.670  0.00  0.00    -0.000 A 
ATOM     25  CD1 PHE A   1      -3.368  42.504  13.345  0.00  0.00    -0.004 A 
ENDBRANCH  19  20
ENDBRANCH  16  19
ENDBRANCH  12  16
ENDBRANCH  11  13
ENDBRANCH   7  11
ENDBRANCH   6   9
BRANCH   6  26
ATOM     26  CB  SER A   3       7.634  44.175  12.812  0.00  0.00    +0.166 C 
BRANCH  26  27
ATOM     27  OG  SER A   3       7.889  45.446  12.209  0.00  0.00    -0.380 OA
ATOM     28  H   SER A   3       8.033  46.123  12.917  0.00  0.00    +0.211 HD
ENDBRANCH  26  27
ENDBRANCH   6  26
ENDBRANCH   2   6
ENDBRANCH   1   3
BRANCH   1  29
ATOM     29  C   VAL A   4       9.212  45.534  17.230  0.00  0.00    +0.241 C 
ATOM     30  O   VAL A   4       9.765  44.476  17.462  0.00  0.00    -0.273 OA
ATOM     31  N   GLU A   5       9.868  46.709  17.274  0.00  0.00    -0.297 N 
ATOM     32  H   GLU A   5       9.344  47.583  17.067  0.00  0.00    +0.150 HD
BRANCH  31  33
ATOM     33  CA  GLU A   5      11.270  46.799  17.597  0.00  0.00    +0.149 C 
BRANCH  33  34
ATOM     34  C   GLU A   5      11.463  46.380  19.036  0.00  0.00    +0.241 C 
ATOM     35  O   GLU A   5      10.669  46.783  19.936  0.00  0.00    -0.273 OA
ATOM     36  N   ASP A   6      12.533  45.613  19.272  0.00  0.00    -0.297 N 
ATOM     37  H   ASP A   6      13.223  45.426  18.517  0.00  0.00    +0.150 HD
BRANCH  36  38
ATOM     38  CA  ASP A   6      12.725  45.028  20.632  0.00  0.00    +0.160 C 
BRANCH  38  39
ATOM     39  C   ASP A   6      14.120  44.437  20.671  0.00  0.00    +0.241 C 
ATOM     40  N   ASP A   7      14.462  43.824  21.797  0.00  0.00    -0.298 N 
ATOM     41  H   ASP A   7      13.725  43.713  22.523  0.00  0.00    +0.150 HD
ATOM     42  O   ASP A   6      14.887  44.489  19.652  0.00  0.00    -0.273 OA
BRANCH  40  43
ATOM     43  CA  ASP A   7      15.787  43.293  22.101  0.00  0.00    +0.148 C 
BRANCH  43  44
ATOM     44  C   ASP A   7      16.256  42.202  21.145  0.00  0.00    +0.227 C 
ATOM     45  O   ASP A   7      17.466  41.885  21.119  0.00  0.00    -0.286 OA
ENDBRANCH  43  44
BRANCH  43  46
ATOM     46  CB  ASP A   7      15.813  42.729  23.521  0.00  0.00    +0.142 C 
BRANCH  46  47
ATOM     47  CG  ASP A   7      15.941  43.799  24.580  0.00  0.00    +0.367 C 
ATOM     48  OD2 ASP A   7      15.294  43.646  25.634  0.00  0.00    -0.246 OA
ATOM     49  OD1 ASP A   7      16.677  44.773  24.370  0.00  0.00    -0.246 OA
ENDBRANCH  46  47
ENDBRANCH  43  46
ENDBRANCH  40  43
ENDBRANCH  38  39
BRANCH  38  50
ATOM     50  CB  ASP A   6      11.626  44.001  20.938  0.00  0.00    +0.143 C 
BRANCH  50  51
ATOM     51  CG  ASP A   6      11.347  43.835  22.420  0.00  0.00    +0.367 C 
ATOM     52  OD2 ASP A   6      12.096  44.341  23.286  0.00  0.00    -0.246 OA
ATOM     53  OD1 ASP A   6      10.312  43.197  22.727  0.00  0.00    -0.246 OA
ENDBRANCH  50  51
ENDBRANCH  38  50
ENDBRANCH  36  38
ENDBRANCH  33  34
BRANCH  33  54
ATOM     54  CB  GLU A   5      11.811  48.241  17.415  0.00  0.00    +0.041 C 
BRANCH  54  55
ATOM     55  CG  GLU A   5      11.955  48.562  15.871  0.00  0.00    +0.116 C 
BRANCH  55  56
ATOM     56  CD  GLU A   5      13.469  48.260  15.337  0.00  0.00    +0.365 C 
ATOM     57  OE2 GLU A   5      14.501  48.468  16.100  0.00  0.00    -0.246 OA
ATOM     58  OE1 GLU A   5      13.637  47.817  14.151  0.00  0.00    -0.246 OA
ENDBRANCH  55  56
ENDBRANCH  54  55
ENDBRANCH  33  54
ENDBRANCH  31  33
ENDBRANCH   1  29
BRANCH   1  59
ATOM     59  CB  VAL A   4       6.942  45.029  18.259  0.00  0.00    +0.027 C 
ATOM     60  CG2 VAL A   4       7.279  45.826  19.513  0.00  0.00    +0.002 C 
ATOM     61  CG1 VAL A   4       5.428  44.961  17.964  0.00  0.00    +0.002 C 
ENDBRANCH   1  59
TORSDOF 26
REMARK  Name = ../refined-set-2016/3pb7/3pb7_pocket.pdb
REMARK  138 active torsions:
REMARK  status: ('A' for Active; 'I' for Inactive)
REMARK    1  A    between atoms: _1  and  _3
REMARK    2  A    between atoms: _3  and  _4
REMARK    3  A    between atoms: _3  and  _6
REMARK    4  A    between atoms: _6  and  _7
REMARK    5  A    between atoms: _12  and  _14
REMARK    6  A    between atoms: _14  and  _15
REMARK    7  A    between atoms: _14  and  _17
REMARK    8  A    between atoms: _17  and  _18
REMARK    9  A    between atoms: _18  and  _19
REMARK   10  A    between atoms: _19  and  _20
REMARK   11  A    between atoms: _20  and  _21
REMARK   12  A    between atoms: _25  and  _27
REMARK   13  A    between atoms: _27  and  _28
REMARK   14  A    between atoms: _27  and  _30
REMARK   15  A    between atoms: _30  and  _31
REMARK   16  A    between atoms: _37  and  _39
REMARK   17  A    between atoms: _39  and  _40
REMARK   18  A    between atoms: _39  and  _42
REMARK   19  A    between atoms: _42  and  _43
REMARK   20  A    between atoms: _46  and  _48
REMARK   21  A    between atoms: _48  and  _49
REMARK   22  A    between atoms: _48  and  _51
REMARK   23  A    between atoms: _51  and  _52
REMARK   24  A    between atoms: _52  and  _54
REMARK   25  A    between atoms: _54  and  ZN_335
REMARK   26  A    between atoms: _55  and  _57
REMARK   27  A    between atoms: _57  and  _58
REMARK   28  A    between atoms: _57  and  _60
REMARK   29  A    between atoms: _60  and  _61
REMARK   30  A    between atoms: _63  and  _65
REMARK   31  A    between atoms: _65  and  _66
REMARK   32  A    between atoms: _65  and  _68
REMARK   33  A    between atoms: _68  and  _69
REMARK   34  A    between atoms: _69  and  _70
REMARK   35  A    between atoms: _73  and  _75
REMARK   36  A    between atoms: _75  and  _76
REMARK   37  A    between atoms: _75  and  _78
REMARK   38  A    between atoms: _78  and  _79
REMARK   39  A    between atoms: _79  and  _80
REMARK   40  A    between atoms: _80  and  _82
REMARK   41  A    between atoms: _82  and  ZN_335
REMARK   42  A    between atoms: _83  and  _85
REMARK   43  A    between atoms: _85  and  _86
REMARK   44  A    between atoms: _89  and  _91
REMARK   45  A    between atoms: _91  and  _92
REMARK   46  A    between atoms: _91  and  _94
REMARK   47  A    between atoms: _94  and  _95
REMARK   48  A    between atoms: _105  and  _107
REMARK   49  A    between atoms: _107  and  _108
REMARK   50  A    between atoms: _107  and  _110
REMARK   51  A    between atoms: _110  and  _111
REMARK   52  A    between atoms: _113  and  _115
REMARK   53  A    between atoms: _115  and  _116
REMARK   54  A    between atoms: _115  and  _118
REMARK   55  A    between atoms: _118  and  _119
REMARK   56  A    between atoms: _122  and  _124
REMARK   57  A    between atoms: _124  and  _125
REMARK   58  A    between atoms: _124  and  _127
REMARK   59  A    between atoms: _127  and  _128
REMARK   60  A    between atoms: _131  and  _133
REMARK   61  A    between atoms: _133  and  _134
REMARK   62  A    between atoms: _133  and  _136
REMARK   63  A    between atoms: _136  and  _137
REMARK   64  A    between atoms: _140  and  _142
REMARK   65  A    between atoms: _142  and  _143
REMARK   66  A    between atoms: _142  and  _145
REMARK   67  A    between atoms: _145  and  _146
REMARK   68  A    between atoms: _149  and  _151
REMARK   69  A    between atoms: _151  and  _152
REMARK   70  A    between atoms: _151  and  _154
REMARK   71  A    between atoms: _154  and  _155
REMARK   72  A    between atoms: _158  and  _160
REMARK   73  A    between atoms: _160  and  _161
REMARK   74  A    between atoms: _160  and  _163
REMARK   75  A    between atoms: _163  and  _164
REMARK   76  A    between atoms: _169  and  _171
REMARK   77  A    between atoms: _171  and  _172
REMARK   78  A    between atoms: _171  and  _174
REMARK   79  A    between atoms: _174  and  _175
REMARK   80  A    between atoms: _181  and  _183
REMARK   81  A    between atoms: _183  and  _184
REMARK   82  A    between atoms: _186  and  _188
REMARK   83  A    between atoms: _188  and  _189
REMARK   84  A    between atoms: _188  and  _191
REMARK   85  A    between atoms: _191  and  _192
REMARK   86  A    between atoms: _194  and  _196
REMARK   87  A    between atoms: _196  and  _197
REMARK   88  A    between atoms: _196  and  _199
REMARK   89  A    between atoms: _202  and  _204
REMARK   90  A    between atoms: _204  and  _205
REMARK   91  A    between atoms: _204  and  _207
REMARK   92  A    between atoms: _207  and  _208
REMARK   93  A    between atoms: _208  and  _209
REMARK   94  A    between atoms: _212  and  _214
REMARK   95  A    between atoms: _214  and  _215
REMARK   96  A    between atoms: _214  and  _217
REMARK   97  A    between atoms: _217  and  _218
REMARK   98  A    between atoms: _221  and  _223
REMARK   99  A    between atoms: _223  and  _224
REMARK  100  A    between atoms: _223  and  _226
REMARK  101  A    between atoms: _226  and  _227
REMARK  102  A    between atoms: _230  and  _232
REMARK  103  A    between atoms: _232  and  _233
REMARK  104  A    between atoms: _232  and  _235
REMARK  105  A    between atoms: _235  and  _236
REMARK  106  A    between atoms: _241  and  _243
REMARK  107  A    between atoms: _243  and  _244
REMARK  108  A    between atoms: _243  and  _246
REMARK  109  A    between atoms: _246  and  _247
REMARK  110  A    between atoms: _250  and  _252
REMARK  111  A    between atoms: _252  and  _253
REMARK  112  A    between atoms: _252  and  _255
REMARK  113  A    between atoms: _255  and  _256
REMARK  114  A    between atoms: _258  and  _260
REMARK  115  A    between atoms: _260  and  _261
REMARK  116  A    between atoms: _260  and  _263
REMARK  117  A    between atoms: _263  and  _264
REMARK  118  A    between atoms: _268  and  _269
REMARK  119  A    between atoms: _274  and  _276
REMARK  120  A    between atoms: _276  and  _277
REMARK  121  A    between atoms: _276  and  _279
REMARK  122  A    between atoms: _279  and  _280
REMARK  123  A    between atoms: _287  and  _288
REMARK  124  A    between atoms: _293  and  _295
REMARK  125  A    between atoms: _295  and  _296
REMARK  126  A    between atoms: _299  and  _301
REMARK  127  A    between atoms: _301  and  _302
REMARK  128  A    between atoms: _301  and  _304
REMARK  129  A    between atoms: _304  and  _305
REMARK  130  A    between atoms: _315  and  _317
REMARK  131  A    between atoms: _317  and  _318
REMARK  132  A    between atoms: _317  and  _320
REMARK  133  A    between atoms: _320  and  _321
REMARK  134  A    between atoms: _325  and  ZN_335
REMARK  135  A    between atoms: _326  and  _328
REMARK  136  A    between atoms: _328  and  _329
REMARK  137  A    between atoms: _328  and  _331
REMARK  138  A    between atoms: _331  and  _332
REMARK                            x       y       z     vdW  Elec       q    Type
REMARK                         _______ _______ _______ _____ _____    ______ ____
ROOT
ATOM      1  CB  HIS A   1       9.080  38.430  18.540  0.00  0.00    +0.072 C 
ENDROOT
BRANCH   1   2
ATOM      2  CG  HIS A   1       9.115  39.709  19.284  0.00  0.00    +0.082 A 
ATOM      3  CD2 HIS A   1       9.340  40.006  20.594  0.00  0.00    +0.115 A 
ATOM      4  NE2 HIS A   1       9.379  41.385  20.671  0.00  0.00    -0.221 NA
ATOM      5  CE1 HIS A   1       9.098  41.899  19.495  0.00  0.00    +0.199 A 
ATOM      6  ND1 HIS A   1       8.987  40.924  18.625  0.00  0.00    -0.227 NA
ENDBRANCH   1   2
BRANCH   1   7
ATOM      7  CA  HIS A   1       9.083  37.186  19.436  0.00  0.00    +0.139 C 
BRANCH   7   8
ATOM      8  N   HIS A   1       9.355  36.043  18.601  0.00  0.00    -0.239 NA
ATOM      9  H   HIS A   1       8.855  35.932  17.696  0.00  0.00    +0.142 HD
ENDBRANCH   7   8
BRANCH   7  10
ATOM     10  C   HIS A   1       7.751  36.961  20.183  0.00  0.00    +0.224 C 
ATOM     11  O   HIS A   1       6.651  37.139  19.606  0.00  0.00    -0.287 OA
ENDBRANCH   7  10
ENDBRANCH   1   7
TORSDOF 4
REMARK  Name = ../refined-set-2016/3pb7/3pb7_pocket.pdb
REMARK  138 active torsions:
REMARK  status: ('A' for Active; 'I' for Inactive)
REMARK    1  A    between atoms: _1  and  _3
REMARK    2  A    between atoms: _3  and  _4
REMARK    3  A    between atoms: _3  and  _6
REMARK    4  A    between atoms: _6  and  _7
REMARK    5  A    between atoms: _12  and  _14
REMARK    6  A    between atoms: _14  and  _15
REMARK    7  A    between atoms: _14  and  _17
REMARK    8  A    between atoms: _17  and  _18
REMARK    9  A    between atoms: _18  and  _19
REMARK   10  A    between atoms: _19  and  _20
REMARK   11  A    between atoms: _20  and  _21
REMARK   12  A    between atoms: _25  and  _27
REMARK   13  A    between atoms: _27  and  _28
REMARK   14  A    between atoms: _27  and  _30
REMARK   15  A    between atoms: _30  and  _31
REMARK   16  A    between atoms: _37  and  _39
REMARK   17  A    between atoms: _39  and  _40
REMARK   18  A    between atoms: _39  and  _42
REMARK   19  A    between atoms: _42  and  _43
REMARK   20  A    between atoms: _46  and  _48
REMARK   21  A    between atoms: _48  and  _49
REMARK   22  A    between atoms: _48  and  _51
REMARK   23  A    between atoms: _51  and  _52
REMARK   24  A    between atoms: _52  and  _54
REMARK   25  A    between atoms: _54  and  ZN_335
REMARK   26  A    between atoms: _55  and  _57
REMARK   27  A    between atoms: _57  and  _58
REMARK   28  A    between atoms: _57  and  _60
REMARK   29  A    between atoms: _60  and  _61
REMARK   30  A    between atoms: _63  and  _65
REMARK   31  A    between atoms: _65  and  _66
REMARK   32  A    between atoms: _65  and  _68
REMARK   33  A    between atoms: _68  and  _69
REMARK   34  A    between atoms: _69  and  _70
REMARK   35  A    between atoms: _73  and  _75
REMARK   36  A    between atoms: _75  and  _76
REMARK   37  A    between atoms: _75  and  _78
REMARK   38  A    between atoms: _78  and  _79
REMARK   39  A    between atoms: _79  and  _80
REMARK   40  A    between atoms: _80  and  _82
REMARK   41  A    between atoms: _82  and  ZN_335
REMARK   42  A    between atoms: _83  and  _85
REMARK   43  A    between atoms: _85  and  _86
REMARK   44  A    between atoms: _89  and  _91
REMARK   45  A    between atoms: _91  and  _92
REMARK   46  A    between atoms: _91  and  _94
REMARK   47  A    between atoms: _94  and  _95
REMARK   48  A    between atoms: _105  and  _107
REMARK   49  A    between atoms: _107  and  _108
REMARK   50  A    between atoms: _107  and  _110
REMARK   51  A    between atoms: _110  and  _111
REMARK   52  A    between atoms: _113  and  _115
REMARK   53  A    between atoms: _115  and  _116
REMARK   54  A    between atoms: _115  and  _118
REMARK   55  A    between atoms: _118  and  _119
REMARK   56  A    between atoms: _122  and  _124
REMARK   57  A    between atoms: _124  and  _125
REMARK   58  A    between atoms: _124  and  _127
REMARK   59  A    between atoms: _127  and  _128
REMARK   60  A    between atoms: _131  and  _133
REMARK   61  A    between atoms: _133  and  _134
REMARK   62  A    between atoms: _133  and  _136
REMARK   63  A    between atoms: _136  and  _137
REMARK   64  A    between atoms: _140  and  _142
REMARK   65  A    between atoms: _142  and  _143
REMARK   66  A    between atoms: _142  and  _145
REMARK   67  A    between atoms: _145  and  _146
REMARK   68  A    between atoms: _149  and  _151
REMARK   69  A    between atoms: _151  and  _152
REMARK   70  A    between atoms: _151  and  _154
REMARK   71  A    between atoms: _154  and  _155
REMARK   72  A    between atoms: _158  and  _160
REMARK   73  A    between atoms: _160  and  _161
REMARK   74  A    between atoms: _160  and  _163
REMARK   75  A    between atoms: _163  and  _164
REMARK   76  A    between atoms: _169  and  _171
REMARK   77  A    between atoms: _171  and  _172
REMARK   78  A    between atoms: _171  and  _174
REMARK   79  A    between atoms: _174  and  _175
REMARK   80  A    between atoms: _181  and  _183
REMARK   81  A    between atoms: _183  and  _184
REMARK   82  A    between atoms: _186  and  _188
REMARK   83  A    between atoms: _188  and  _189
REMARK   84  A    between atoms: _188  and  _191
REMARK   85  A    between atoms: _191  and  _192
REMARK   86  A    between atoms: _194  and  _196
REMARK   87  A    between atoms: _196  and  _197
REMARK   88  A    between atoms: _196  and  _199
REMARK   89  A    between atoms: _202  and  _204
REMARK   90  A    between atoms: _204  and  _205
REMARK   91  A    between atoms: _204  and  _207
REMARK   92  A    between atoms: _207  and  _208
REMARK   93  A    between atoms: _208  and  _209
REMARK   94  A    between atoms: _212  and  _214
REMARK   95  A    between atoms: _214  and  _215
REMARK   96  A    between atoms: _214  and  _217
REMARK   97  A    between atoms: _217  and  _218
REMARK   98  A    between atoms: _221  and  _223
REMARK   99  A    between atoms: _223  and  _224
REMARK  100  A    between atoms: _223  and  _226
REMARK  101  A    between atoms: _226  and  _227
REMARK  102  A    between atoms: _230  and  _232
REMARK  103  A    between atoms: _232  and  _233
REMARK  104  A    between atoms: _232  and  _235
REMARK  105  A    between atoms: _235  and  _236
REMARK  106  A    between atoms: _241  and  _243
REMARK  107  A    between atoms: _243  and  _244
REMARK  108  A    between atoms: _243  and  _246
REMARK  109  A    between atoms: _246  and  _247
REMARK  110  A    between atoms: _250  and  _252
REMARK  111  A    between atoms: _252  and  _253
REMARK  112  A    between atoms: _252  and  _255
REMARK  113  A    between atoms: _255  and  _256
REMARK  114  A    between atoms: _258  and  _260
REMARK  115  A    between atoms: _260  and  _261
REMARK  116  A    between atoms: _260  and  _263
REMARK  117  A    between atoms: _263  and  _264
REMARK  118  A    between atoms: _268  and  _269
REMARK  119  A    between atoms: _274  and  _276
REMARK  120  A    between atoms: _276  and  _277
REMARK  121  A    between atoms: _276  and  _279
REMARK  122  A    between atoms: _279  and  _280
REMARK  123  A    between atoms: _287  and  _288
REMARK  124  A    between atoms: _293  and  _295
REMARK  125  A    between atoms: _295  and  _296
REMARK  126  A    between atoms: _299  and  _301
REMARK  127  A    between atoms: _301  and  _302
REMARK  128  A    between atoms: _301  and  _304
REMARK  129  A    between atoms: _304  and  _305
REMARK  130  A    between atoms: _315  and  _317
REMARK  131  A    between atoms: _317  and  _318
REMARK  132  A    between atoms: _317  and  _320
REMARK  133  A    between atoms: _320  and  _321
REMARK  134  A    between atoms: _325  and  ZN_335
REMARK  135  A    between atoms: _326  and  _328
REMARK  136  A    between atoms: _328  and  _329
REMARK  137  A    between atoms: _328  and  _331
REMARK  138  A    between atoms: _331  and  _332
REMARK                            x       y       z     vdW  Elec       q    Type
REMARK                         _______ _______ _______ _____ _____    ______ ____
ROOT
ATOM      1  C   THR A   3      -1.470  42.342  19.924  0.00  0.00    +0.246 C 
ATOM      2  N   PRO A   4      -2.327  43.281  20.270  0.00  0.00    -0.272 N 
ATOM      3  CA  PRO A   4      -2.037  44.605  20.876  0.00  0.00    +0.152 C 
ATOM      4  CB  PRO A   4      -3.442  45.248  21.065  0.00  0.00    +0.031 C 
ATOM      5  CG  PRO A   4      -4.344  44.478  20.089  0.00  0.00    +0.024 C 
ATOM      6  CD  PRO A   4      -3.765  43.052  20.056  0.00  0.00    +0.094 C 
ATOM      7  O   THR A   3      -1.830  41.252  19.426  0.00  0.00    -0.273 OA
ENDROOT
BRANCH   3   8
ATOM      8  C   PRO A   4      -1.304  44.475  22.200  0.00  0.00    +0.241 C 
ATOM      9  O   PRO A   4      -1.428  43.481  22.930  0.00  0.00    -0.273 OA
ATOM     10  N   PHE A   5      -0.610  45.570  22.519  0.00  0.00    -0.297 N 
ATOM     11  H   PHE A   5      -0.544  46.350  21.834  0.00  0.00    +0.150 HD
BRANCH  10  12
ATOM     12  CA  PHE A   5       0.053  45.692  23.801  0.00  0.00    +0.153 C 
BRANCH  12  13
ATOM     13  C   PHE A   5      -0.976  45.722  24.933  0.00  0.00    +0.244 C 
ATOM     14  N   PRO A   6      -0.551  45.444  26.159  0.00  0.00    -0.272 N 
ATOM     15  CA  PRO A   6      -1.433  45.599  27.331  0.00  0.00    +0.152 C 
ATOM     16  CB  PRO A   6      -0.466  45.462  28.509  0.00  0.00    +0.031 C 
ATOM     17  CG  PRO A   6       0.549  44.441  27.987  0.00  0.00    +0.024 C 
ATOM     18  CD  PRO A   6       0.771  44.916  26.532  0.00  0.00    +0.094 C 
ATOM     19  O   PHE A   5      -2.143  46.065  24.727  0.00  0.00    -0.273 OA
BRANCH  15  20
ATOM     20  C   PRO A   6      -2.070  46.992  27.339  0.00  0.00    +0.241 C 
ATOM     21  N   ALA A   7      -3.316  47.089  27.811  0.00  0.00    -0.298 N 
ATOM     22  H   ALA A   7      -3.827  46.233  28.106  0.00  0.00    +0.150 HD
ATOM     23  O   PRO A   6      -1.397  47.970  26.982  0.00  0.00    -0.273 OA
BRANCH  21  24
ATOM     24  CA  ALA A   7      -3.970  48.410  27.915  0.00  0.00    +0.137 C 
ATOM     25  CB  ALA A   7      -5.399  48.264  28.502  0.00  0.00    +0.030 C 
BRANCH  24  26
ATOM     26  C   ALA A   7      -3.152  49.382  28.729  0.00  0.00    +0.227 C 
ATOM     27  O   ALA A   7      -3.170  50.591  28.450  0.00  0.00    -0.286 OA
ENDBRANCH  24  26
ENDBRANCH  21  24
ENDBRANCH  15  20
ENDBRANCH  12  13
BRANCH  12  28
ATOM     28  CB  PHE A   5       0.821  47.031  23.793  0.00  0.00    +0.055 C 
BRANCH  28  29
ATOM     29  CG  PHE A   5       2.061  47.062  22.935  0.00  0.00    -0.020 A 
ATOM     30  CD2 PHE A   5       2.868  48.194  22.929  0.00  0.00    -0.004 A 
ATOM     31  CE2 PHE A   5       4.022  48.266  22.156  0.00  0.00    -0.000 A 
ATOM     32  CZ  PHE A   5       4.401  47.206  21.321  0.00  0.00    -0.000 A 
ATOM     33  CE1 PHE A   5       3.616  46.035  21.287  0.00  0.00    -0.000 A 
ATOM     34  CD1 PHE A   5       2.418  45.977  22.111  0.00  0.00    -0.004 A 
ENDBRANCH  28  29
ENDBRANCH  12  28
ENDBRANCH  10  12
ENDBRANCH   3   8
BRANCH   1  35
ATOM     35  CA  THR A   3       0.019  42.584  20.173  0.00  0.00    +0.176 C 
BRANCH  35  38
ATOM     36  C   SER A   2       1.250  41.720  22.114  0.00  0.00    +0.243 C 
ATOM     37  O   SER A   2       1.782  42.780  22.316  0.00  0.00    -0.273 OA
ATOM     38  N   THR A   3       0.418  41.534  21.103  0.00  0.00    -0.295 N 
ATOM     39  H   THR A   3       0.025  40.582  20.963  0.00  0.00    +0.150 HD
BRANCH  36  40
ATOM     40  CA  SER A   2       1.424  40.546  23.066  0.00  0.00    +0.178 C 
BRANCH  40  42
ATOM     41  C   ILE A   1       3.629  39.820  22.474  0.00  0.00    +0.238 C 
ATOM     42  N   SER A   2       2.822  40.318  23.388  0.00  0.00    -0.295 N 
ATOM     43  H   SER A   2       3.184  40.547  24.336  0.00  0.00    +0.150 HD
ATOM     44  O   ILE A   1       3.179  39.505  21.369  0.00  0.00    -0.274 OA
BRANCH  41  45
ATOM     45  CA  ILE A   1       5.138  39.701  22.747  0.00  0.00    +0.145 C 
BRANCH  45  46
ATOM     46  CB  ILE A   1       5.921  40.841  22.072  0.00  0.00    +0.025 C 
ATOM     47  CG2 ILE A   1       5.791  40.799  20.522  0.00  0.00    +0.002 C 
BRANCH  46  48
ATOM     48  CG1 ILE A   1       5.523  42.223  22.677  0.00  0.00    +0.002 C 
ATOM     49  CD1 ILE A   1       6.543  43.344  22.249  0.00  0.00    +0.000 C 
ENDBRANCH  46  48
ENDBRANCH  45  46
BRANCH  45  50
ATOM     50  N   ILE A   1       5.537  38.370  22.283  0.00  0.00    -0.238 NA
ATOM     51  H   ILE A   1       5.256  38.078  21.325  0.00  0.00    +0.142 HD
ENDBRANCH  45  50
ENDBRANCH  41  45
ENDBRANCH  40  42
BRANCH  40  52
ATOM     52  CB  SER A   2       0.606  40.920  24.346  0.00  0.00    +0.166 C 
BRANCH  52  53
ATOM     53  OG  SER A   2      -0.795  41.049  24.072  0.00  0.00    -0.380 OA
ATOM     54  H   SER A   2      -0.934  41.760  23.398  0.00  0.00    +0.211 HD
ENDBRANCH  52  53
ENDBRANCH  40  52
ENDBRANCH  36  40
ENDBRANCH  35  38
BRANCH  35  55
ATOM     55  CB  THR A   3       0.792  42.486  18.845  0.00  0.00    +0.137 C 
ATOM     56  CG2 THR A   3       2.284  42.801  19.005  0.00  0.00    +0.034 C 
BRANCH  55  57
ATOM     57  OG1 THR A   3       0.586  41.207  18.209  0.00  0.00    -0.382 OA
ATOM     58  HG1 THR A   3       1.095  41.176  17.360  0.00  0.00    +0.210 HD
ENDBRANCH  55  57
ENDBRANCH  35  55
ENDBRANCH   1  35
TORSDOF 20
REMARK  Name = ../refined-set-2016/3pb7/3pb7_pocket.pdb
REMARK  138 active torsions:
REMARK  status: ('A' for Active; 'I' for Inactive)
REMARK    1  A    between atoms: _1  and  _3
REMARK    2  A    between atoms: _3  and  _4
REMARK    3  A    between atoms: _3  and  _6
REMARK    4  A    between atoms: _6  and  _7
REMARK    5  A    between atoms: _12  and  _14
REMARK    6  A    between atoms: _14  and  _15
REMARK    7  A    between atoms: _14  and  _17
REMARK    8  A    between atoms: _17  and  _18
REMARK    9  A    between atoms: _18  and  _19
REMARK   10  A    between atoms: _19  and  _20
REMARK   11  A    between atoms: _20  and  _21
REMARK   12  A    between atoms: _25  and  _27
REMARK   13  A    between atoms: _27  and  _28
REMARK   14  A    between atoms: _27  and  _30
REMARK   15  A    between atoms: _30  and  _31
REMARK   16  A    between atoms: _37  and  _39
REMARK   17  A    between atoms: _39  and  _40
REMARK   18  A    between atoms: _39  and  _42
REMARK   19  A    between atoms: _42  and  _43
REMARK   20  A    between atoms: _46  and  _48
REMARK   21  A    between atoms: _48  and  _49
REMARK   22  A    between atoms: _48  and  _51
REMARK   23  A    between atoms: _51  and  _52
REMARK   24  A    between atoms: _52  and  _54
REMARK   25  A    between atoms: _54  and  ZN_335
REMARK   26  A    between atoms: _55  and  _57
REMARK   27  A    between atoms: _57  and  _58
REMARK   28  A    between atoms: _57  and  _60
REMARK   29  A    between atoms: _60  and  _61
REMARK   30  A    between atoms: _63  and  _65
REMARK   31  A    between atoms: _65  and  _66
REMARK   32  A    between atoms: _65  and  _68
REMARK   33  A    between atoms: _68  and  _69
REMARK   34  A    between atoms: _69  and  _70
REMARK   35  A    between atoms: _73  and  _75
REMARK   36  A    between atoms: _75  and  _76
REMARK   37  A    between atoms: _75  and  _78
REMARK   38  A    between atoms: _78  and  _79
REMARK   39  A    between atoms: _79  and  _80
REMARK   40  A    between atoms: _80  and  _82
REMARK   41  A    between atoms: _82  and  ZN_335
REMARK   42  A    between atoms: _83  and  _85
REMARK   43  A    between atoms: _85  and  _86
REMARK   44  A    between atoms: _89  and  _91
REMARK   45  A    between atoms: _91  and  _92
REMARK   46  A    between atoms: _91  and  _94
REMARK   47  A    between atoms: _94  and  _95
REMARK   48  A    between atoms: _105  and  _107
REMARK   49  A    between atoms: _107  and  _108
REMARK   50  A    between atoms: _107  and  _110
REMARK   51  A    between atoms: _110  and  _111
REMARK   52  A    between atoms: _113  and  _115
REMARK   53  A    between atoms: _115  and  _116
REMARK   54  A    between atoms: _115  and  _118
REMARK   55  A    between atoms: _118  and  _119
REMARK   56  A    between atoms: _122  and  _124
REMARK   57  A    between atoms: _124  and  _125
REMARK   58  A    between atoms: _124  and  _127
REMARK   59  A    between atoms: _127  and  _128
REMARK   60  A    between atoms: _131  and  _133
REMARK   61  A    between atoms: _133  and  _134
REMARK   62  A    between atoms: _133  and  _136
REMARK   63  A    between atoms: _136  and  _137
REMARK   64  A    between atoms: _140  and  _142
REMARK   65  A    between atoms: _142  and  _143
REMARK   66  A    between atoms: _142  and  _145
REMARK   67  A    between atoms: _145  and  _146
REMARK   68  A    between atoms: _149  and  _151
REMARK   69  A    between atoms: _151  and  _152
REMARK   70  A    between atoms: _151  and  _154
REMARK   71  A    between atoms: _154  and  _155
REMARK   72  A    between atoms: _158  and  _160
REMARK   73  A    between atoms: _160  and  _161
REMARK   74  A    between atoms: _160  and  _163
REMARK   75  A    between atoms: _163  and  _164
REMARK   76  A    between atoms: _169  and  _171
REMARK   77  A    between atoms: _171  and  _172
REMARK   78  A    between atoms: _171  and  _174
REMARK   79  A    between atoms: _174  and  _175
REMARK   80  A    between atoms: _181  and  _183
REMARK   81  A    between atoms: _183  and  _184
REMARK   82  A    between atoms: _186  and  _188
REMARK   83  A    between atoms: _188  and  _189
REMARK   84  A    between atoms: _188  and  _191
REMARK   85  A    between atoms: _191  and  _192
REMARK   86  A    between atoms: _194  and  _196
REMARK   87  A    between atoms: _196  and  _197
REMARK   88  A    between atoms: _196  and  _199
REMARK   89  A    between atoms: _202  and  _204
REMARK   90  A    between atoms: _204  and  _205
REMARK   91  A    between atoms: _204  and  _207
REMARK   92  A    between atoms: _207  and  _208
REMARK   93  A    between atoms: _208  and  _209
REMARK   94  A    between atoms: _212  and  _214
REMARK   95  A    between atoms: _214  and  _215
REMARK   96  A    between atoms: _214  and  _217
REMARK   97  A    between atoms: _217  and  _218
REMARK   98  A    between atoms: _221  and  _223
REMARK   99  A    between atoms: _223  and  _224
REMARK  100  A    between atoms: _223  and  _226
REMARK  101  A    between atoms: _226  and  _227
REMARK  102  A    between atoms: _230  and  _232
REMARK  103  A    between atoms: _232  and  _233
REMARK  104  A    between atoms: _232  and  _235
REMARK  105  A    between atoms: _235  and  _236
REMARK  106  A    between atoms: _241  and  _243
REMARK  107  A    between atoms: _243  and  _244
REMARK  108  A    between atoms: _243  and  _246
REMARK  109  A    between atoms: _246  and  _247
REMARK  110  A    between atoms: _250  and  _252
REMARK  111  A    between atoms: _252  and  _253
REMARK  112  A    between atoms: _252  and  _255
REMARK  113  A    between atoms: _255  and  _256
REMARK  114  A    between atoms: _258  and  _260
REMARK  115  A    between atoms: _260  and  _261
REMARK  116  A    between atoms: _260  and  _263
REMARK  117  A    between atoms: _263  and  _264
REMARK  118  A    between atoms: _268  and  _269
REMARK  119  A    between atoms: _274  and  _276
REMARK  120  A    between atoms: _276  and  _277
REMARK  121  A    between atoms: _276  and  _279
REMARK  122  A    between atoms: _279  and  _280
REMARK  123  A    between atoms: _287  and  _288
REMARK  124  A    between atoms: _293  and  _295
REMARK  125  A    between atoms: _295  and  _296
REMARK  126  A    between atoms: _299  and  _301
REMARK  127  A    between atoms: _301  and  _302
REMARK  128  A    between atoms: _301  and  _304
REMARK  129  A    between atoms: _304  and  _305
REMARK  130  A    between atoms: _315  and  _317
REMARK  131  A    between atoms: _317  and  _318
REMARK  132  A    between atoms: _317  and  _320
REMARK  133  A    between atoms: _320  and  _321
REMARK  134  A    between atoms: _325  and  ZN_335
REMARK  135  A    between atoms: _326  and  _328
REMARK  136  A    between atoms: _328  and  _329
REMARK  137  A    between atoms: _328  and  _331
REMARK  138  A    between atoms: _331  and  _332
REMARK                            x       y       z     vdW  Elec       q    Type
REMARK                         _______ _______ _______ _____ _____    ______ ____
ROOT
ATOM      1  CA  ASP A   1       1.342  48.792  34.611  0.00  0.00    +0.144 C 
ENDROOT
BRANCH   1   2
ATOM      2  N   ASP A   1       0.782  50.079  34.899  0.00  0.00    -0.239 NA
ATOM      3  H   ASP A   1       1.308  50.936  34.633  0.00  0.00    +0.142 HD
ENDBRANCH   1   2
BRANCH   1   4
ATOM      4  C   ASP A   1       1.987  48.257  35.921  0.00  0.00    +0.225 C 
ATOM      5  O   ASP A   1       3.235  48.331  36.135  0.00  0.00    -0.287 OA
ENDBRANCH   1   4
BRANCH   1   6
ATOM      6  CB  ASP A   1       2.347  48.856  33.470  0.00  0.00    +0.139 C 
BRANCH   6   7
ATOM      7  CG  ASP A   1       2.857  47.488  33.088  0.00  0.00    +0.367 C 
ATOM      8  OD2 ASP A   1       2.369  46.481  33.636  0.00  0.00    -0.246 OA
ATOM      9  OD1 ASP A   1       3.704  47.418  32.174  0.00  0.00    -0.246 OA
ENDBRANCH   6   7
ENDBRANCH   1   6
TORSDOF 4
REMARK  Name = ../refined-set-2016/3pb7/3pb7_pocket.pdb
REMARK  138 active torsions:
REMARK  status: ('A' for Active; 'I' for Inactive)
REMARK    1  A    between atoms: _1  and  _3
REMARK    2  A    between atoms: _3  and  _4
REMARK    3  A    between atoms: _3  and  _6
REMARK    4  A    between atoms: _6  and  _7
REMARK    5  A    between atoms: _12  and  _14
REMARK    6  A    between atoms: _14  and  _15
REMARK    7  A    between atoms: _14  and  _17
REMARK    8  A    between atoms: _17  and  _18
REMARK    9  A    between atoms: _18  and  _19
REMARK   10  A    between atoms: _19  and  _20
REMARK   11  A    between atoms: _20  and  _21
REMARK   12  A    between atoms: _25  and  _27
REMARK   13  A    between atoms: _27  and  _28
REMARK   14  A    between atoms: _27  and  _30
REMARK   15  A    between atoms: _30  and  _31
REMARK   16  A    between atoms: _37  and  _39
REMARK   17  A    between atoms: _39  and  _40
REMARK   18  A    between atoms: _39  and  _42
REMARK   19  A    between atoms: _42  and  _43
REMARK   20  A    between atoms: _46  and  _48
REMARK   21  A    between atoms: _48  and  _49
REMARK   22  A    between atoms: _48  and  _51
REMARK   23  A    between atoms: _51  and  _52
REMARK   24  A    between atoms: _52  and  _54
REMARK   25  A    between atoms: _54  and  ZN_335
REMARK   26  A    between atoms: _55  and  _57
REMARK   27  A    between atoms: _57  and  _58
REMARK   28  A    between atoms: _57  and  _60
REMARK   29  A    between atoms: _60  and  _61
REMARK   30  A    between atoms: _63  and  _65
REMARK   31  A    between atoms: _65  and  _66
REMARK   32  A    between atoms: _65  and  _68
REMARK   33  A    between atoms: _68  and  _69
REMARK   34  A    between atoms: _69  and  _70
REMARK   35  A    between atoms: _73  and  _75
REMARK   36  A    between atoms: _75  and  _76
REMARK   37  A    between atoms: _75  and  _78
REMARK   38  A    between atoms: _78  and  _79
REMARK   39  A    between atoms: _79  and  _80
REMARK   40  A    between atoms: _80  and  _82
REMARK   41  A    between atoms: _82  and  ZN_335
REMARK   42  A    between atoms: _83  and  _85
REMARK   43  A    between atoms: _85  and  _86
REMARK   44  A    between atoms: _89  and  _91
REMARK   45  A    between atoms: _91  and  _92
REMARK   46  A    between atoms: _91  and  _94
REMARK   47  A    between atoms: _94  and  _95
REMARK   48  A    between atoms: _105  and  _107
REMARK   49  A    between atoms: _107  and  _108
REMARK   50  A    between atoms: _107  and  _110
REMARK   51  A    between atoms: _110  and  _111
REMARK   52  A    between atoms: _113  and  _115
REMARK   53  A    between atoms: _115  and  _116
REMARK   54  A    between atoms: _115  and  _118
REMARK   55  A    between atoms: _118  and  _119
REMARK   56  A    between atoms: _122  and  _124
REMARK   57  A    between atoms: _124  and  _125
REMARK   58  A    between atoms: _124  and  _127
REMARK   59  A    between atoms: _127  and  _128
REMARK   60  A    between atoms: _131  and  _133
REMARK   61  A    between atoms: _133  and  _134
REMARK   62  A    between atoms: _133  and  _136
REMARK   63  A    between atoms: _136  and  _137
REMARK   64  A    between atoms: _140  and  _142
REMARK   65  A    between atoms: _142  and  _143
REMARK   66  A    between atoms: _142  and  _145
REMARK   67  A    between atoms: _145  and  _146
REMARK   68  A    between atoms: _149  and  _151
REMARK   69  A    between atoms: _151  and  _152
REMARK   70  A    between atoms: _151  and  _154
REMARK   71  A    between atoms: _154  and  _155
REMARK   72  A    between atoms: _158  and  _160
REMARK   73  A    between atoms: _160  and  _161
REMARK   74  A    between atoms: _160  and  _163
REMARK   75  A    between atoms: _163  and  _164
REMARK   76  A    between atoms: _169  and  _171
REMARK   77  A    between atoms: _171  and  _172
REMARK   78  A    between atoms: _171  and  _174
REMARK   79  A    between atoms: _174  and  _175
REMARK   80  A    between atoms: _181  and  _183
REMARK   81  A    between atoms: _183  and  _184
REMARK   82  A    between atoms: _186  and  _188
REMARK   83  A    between atoms: _188  and  _189
REMARK   84  A    between atoms: _188  and  _191
REMARK   85  A    between atoms: _191  and  _192
REMARK   86  A    between atoms: _194  and  _196
REMARK   87  A    between atoms: _196  and  _197
REMARK   88  A    between atoms: _196  and  _199
REMARK   89  A    between atoms: _202  and  _204
REMARK   90  A    between atoms: _204  and  _205
REMARK   91  A    between atoms: _204  and  _207
REMARK   92  A    between atoms: _207  and  _208
REMARK   93  A    between atoms: _208  and  _209
REMARK   94  A    between atoms: _212  and  _214
REMARK   95  A    between atoms: _214  and  _215
REMARK   96  A    between atoms: _214  and  _217
REMARK   97  A    between atoms: _217  and  _218
REMARK   98  A    between atoms: _221  and  _223
REMARK   99  A    between atoms: _223  and  _224
REMARK  100  A    between atoms: _223  and  _226
REMARK  101  A    between atoms: _226  and  _227
REMARK  102  A    between atoms: _230  and  _232
REMARK  103  A    between atoms: _232  and  _233
REMARK  104  A    between atoms: _232  and  _235
REMARK  105  A    between atoms: _235  and  _236
REMARK  106  A    between atoms: _241  and  _243
REMARK  107  A    between atoms: _243  and  _244
REMARK  108  A    between atoms: _243  and  _246
REMARK  109  A    between atoms: _246  and  _247
REMARK  110  A    between atoms: _250  and  _252
REMARK  111  A    between atoms: _252  and  _253
REMARK  112  A    between atoms: _252  and  _255
REMARK  113  A    between atoms: _255  and  _256
REMARK  114  A    between atoms: _258  and  _260
REMARK  115  A    between atoms: _260  and  _261
REMARK  116  A    between atoms: _260  and  _263
REMARK  117  A    between atoms: _263  and  _264
REMARK  118  A    between atoms: _268  and  _269
REMARK  119  A    between atoms: _274  and  _276
REMARK  120  A    between atoms: _276  and  _277
REMARK  121  A    between atoms: _276  and  _279
REMARK  122  A    between atoms: _279  and  _280
REMARK  123  A    between atoms: _287  and  _288
REMARK  124  A    between atoms: _293  and  _295
REMARK  125  A    between atoms: _295  and  _296
REMARK  126  A    between atoms: _299  and  _301
REMARK  127  A    between atoms: _301  and  _302
REMARK  128  A    between atoms: _301  and  _304
REMARK  129  A    between atoms: _304  and  _305
REMARK  130  A    between atoms: _315  and  _317
REMARK  131  A    between atoms: _317  and  _318
REMARK  132  A    between atoms: _317  and  _320
REMARK  133  A    between atoms: _320  and  _321
REMARK  134  A    between atoms: _325  and  ZN_335
REMARK  135  A    between atoms: _326  and  _328
REMARK  136  A    between atoms: _328  and  _329
REMARK  137  A    between atoms: _328  and  _331
REMARK  138  A    between atoms: _331  and  _332
REMARK                            x       y       z     vdW  Elec       q    Type
REMARK                         _______ _______ _______ _____ _____    ______ ____
ROOT
ATOM      1  O   HOH     1       8.183  41.898  16.001  0.00  0.00    +0.000 OA
ENDROOT
TORSDOF 0
REMARK  Name = ../refined-set-2016/3pb7/3pb7_pocket.pdb
REMARK  138 active torsions:
REMARK  status: ('A' for Active; 'I' for Inactive)
REMARK    1  A    between atoms: _1  and  _3
REMARK    2  A    between atoms: _3  and  _4
REMARK    3  A    between atoms: _3  and  _6
REMARK    4  A    between atoms: _6  and  _7
REMARK    5  A    between atoms: _12  and  _14
REMARK    6  A    between atoms: _14  and  _15
REMARK    7  A    between atoms: _14  and  _17
REMARK    8  A    between atoms: _17  and  _18
REMARK    9  A    between atoms: _18  and  _19
REMARK   10  A    between atoms: _19  and  _20
REMARK   11  A    between atoms: _20  and  _21
REMARK   12  A    between atoms: _25  and  _27
REMARK   13  A    between atoms: _27  and  _28
REMARK   14  A    between atoms: _27  and  _30
REMARK   15  A    between atoms: _30  and  _31
REMARK   16  A    between atoms: _37  and  _39
REMARK   17  A    between atoms: _39  and  _40
REMARK   18  A    between atoms: _39  and  _42
REMARK   19  A    between atoms: _42  and  _43
REMARK   20  A    between atoms: _46  and  _48
REMARK   21  A    between atoms: _48  and  _49
REMARK   22  A    between atoms: _48  and  _51
REMARK   23  A    between atoms: _51  and  _52
REMARK   24  A    between atoms: _52  and  _54
REMARK   25  A    between atoms: _54  and  ZN_335
REMARK   26  A    between atoms: _55  and  _57
REMARK   27  A    between atoms: _57  and  _58
REMARK   28  A    between atoms: _57  and  _60
REMARK   29  A    between atoms: _60  and  _61
REMARK   30  A    between atoms: _63  and  _65
REMARK   31  A    between atoms: _65  and  _66
REMARK   32  A    between atoms: _65  and  _68
REMARK   33  A    between atoms: _68  and  _69
REMARK   34  A    between atoms: _69  and  _70
REMARK   35  A    between atoms: _73  and  _75
REMARK   36  A    between atoms: _75  and  _76
REMARK   37  A    between atoms: _75  and  _78
REMARK   38  A    between atoms: _78  and  _79
REMARK   39  A    between atoms: _79  and  _80
REMARK   40  A    between atoms: _80  and  _82
REMARK   41  A    between atoms: _82  and  ZN_335
REMARK   42  A    between atoms: _83  and  _85
REMARK   43  A    between atoms: _85  and  _86
REMARK   44  A    between atoms: _89  and  _91
REMARK   45  A    between atoms: _91  and  _92
REMARK   46  A    between atoms: _91  and  _94
REMARK   47  A    between atoms: _94  and  _95
REMARK   48  A    between atoms: _105  and  _107
REMARK   49  A    between atoms: _107  and  _108
REMARK   50  A    between atoms: _107  and  _110
REMARK   51  A    between atoms: _110  and  _111
REMARK   52  A    between atoms: _113  and  _115
REMARK   53  A    between atoms: _115  and  _116
REMARK   54  A    between atoms: _115  and  _118
REMARK   55  A    between atoms: _118  and  _119
REMARK   56  A    between atoms: _122  and  _124
REMARK   57  A    between atoms: _124  and  _125
REMARK   58  A    between atoms: _124  and  _127
REMARK   59  A    between atoms: _127  and  _128
REMARK   60  A    between atoms: _131  and  _133
REMARK   61  A    between atoms: _133  and  _134
REMARK   62  A    between atoms: _133  and  _136
REMARK   63  A    between atoms: _136  and  _137
REMARK   64  A    between atoms: _140  and  _142
REMARK   65  A    between atoms: _142  and  _143
REMARK   66  A    between atoms: _142  and  _145
REMARK   67  A    between atoms: _145  and  _146
REMARK   68  A    between atoms: _149  and  _151
REMARK   69  A    between atoms: _151  and  _152
REMARK   70  A    between atoms: _151  and  _154
REMARK   71  A    between atoms: _154  and  _155
REMARK   72  A    between atoms: _158  and  _160
REMARK   73  A    between atoms: _160  and  _161
REMARK   74  A    between atoms: _160  and  _163
REMARK   75  A    between atoms: _163  and  _164
REMARK   76  A    between atoms: _169  and  _171
REMARK   77  A    between atoms: _171  and  _172
REMARK   78  A    between atoms: _171  and  _174
REMARK   79  A    between atoms: _174  and  _175
REMARK   80  A    between atoms: _181  and  _183
REMARK   81  A    between atoms: _183  and  _184
REMARK   82  A    between atoms: _186  and  _188
REMARK   83  A    between atoms: _188  and  _189
REMARK   84  A    between atoms: _188  and  _191
REMARK   85  A    between atoms: _191  and  _192
REMARK   86  A    between atoms: _194  and  _196
REMARK   87  A    between atoms: _196  and  _197
REMARK   88  A    between atoms: _196  and  _199
REMARK   89  A    between atoms: _202  and  _204
REMARK   90  A    between atoms: _204  and  _205
REMARK   91  A    between atoms: _204  and  _207
REMARK   92  A    between atoms: _207  and  _208
REMARK   93  A    between atoms: _208  and  _209
REMARK   94  A    between atoms: _212  and  _214
REMARK   95  A    between atoms: _214  and  _215
REMARK   96  A    between atoms: _214  and  _217
REMARK   97  A    between atoms: _217  and  _218
REMARK   98  A    between atoms: _221  and  _223
REMARK   99  A    between atoms: _223  and  _224
REMARK  100  A    between atoms: _223  and  _226
REMARK  101  A    between atoms: _226  and  _227
REMARK  102  A    between atoms: _230  and  _232
REMARK  103  A    between atoms: _232  and  _233
REMARK  104  A    between atoms: _232  and  _235
REMARK  105  A    between atoms: _235  and  _236
REMARK  106  A    between atoms: _241  and  _243
REMARK  107  A    between atoms: _243  and  _244
REMARK  108  A    between atoms: _243  and  _246
REMARK  109  A    between atoms: _246  and  _247
REMARK  110  A    between atoms: _250  and  _252
REMARK  111  A    between atoms: _252  and  _253
REMARK  112  A    between atoms: _252  and  _255
REMARK  113  A    between atoms: _255  and  _256
REMARK  114  A    between atoms: _258  and  _260
REMARK  115  A    between atoms: _260  and  _261
REMARK  116  A    between atoms: _260  and  _263
REMARK  117  A    between atoms: _263  and  _264
REMARK  118  A    between atoms: _268  and  _269
REMARK  119  A    between atoms: _274  and  _276
REMARK  120  A    between atoms: _276  and  _277
REMARK  121  A    between atoms: _276  and  _279
REMARK  122  A    between atoms: _279  and  _280
REMARK  123  A    between atoms: _287  and  _288
REMARK  124  A    between atoms: _293  and  _295
REMARK  125  A    between atoms: _295  and  _296
REMARK  126  A    between atoms: _299  and  _301
REMARK  127  A    between atoms: _301  and  _302
REMARK  128  A    between atoms: _301  and  _304
REMARK  129  A    between atoms: _304  and  _305
REMARK  130  A    between atoms: _315  and  _317
REMARK  131  A    between atoms: _317  and  _318
REMARK  132  A    between atoms: _317  and  _320
REMARK  133  A    between atoms: _320  and  _321
REMARK  134  A    between atoms: _325  and  ZN_335
REMARK  135  A    between atoms: _326  and  _328
REMARK  136  A    between atoms: _328  and  _329
REMARK  137  A    between atoms: _328  and  _331
REMARK  138  A    between atoms: _331  and  _332
REMARK                            x       y       z     vdW  Elec       q    Type
REMARK                         _______ _______ _______ _____ _____    ______ ____
ROOT
ATOM      1  O   HOH     1      12.668  42.943  25.727  0.00  0.00    +0.000 OA
ENDROOT
TORSDOF 0
REMARK  Name = ../refined-set-2016/3pb7/3pb7_pocket.pdb
REMARK  138 active torsions:
REMARK  status: ('A' for Active; 'I' for Inactive)
REMARK    1  A    between atoms: _1  and  _3
REMARK    2  A    between atoms: _3  and  _4
REMARK    3  A    between atoms: _3  and  _6
REMARK    4  A    between atoms: _6  and  _7
REMARK    5  A    between atoms: _12  and  _14
REMARK    6  A    between atoms: _14  and  _15
REMARK    7  A    between atoms: _14  and  _17
REMARK    8  A    between atoms: _17  and  _18
REMARK    9  A    between atoms: _18  and  _19
REMARK   10  A    between atoms: _19  and  _20
REMARK   11  A    between atoms: _20  and  _21
REMARK   12  A    between atoms: _25  and  _27
REMARK   13  A    between atoms: _27  and  _28
REMARK   14  A    between atoms: _27  and  _30
REMARK   15  A    between atoms: _30  and  _31
REMARK   16  A    between atoms: _37  and  _39
REMARK   17  A    between atoms: _39  and  _40
REMARK   18  A    between atoms: _39  and  _42
REMARK   19  A    between atoms: _42  and  _43
REMARK   20  A    between atoms: _46  and  _48
REMARK   21  A    between atoms: _48  and  _49
REMARK   22  A    between atoms: _48  and  _51
REMARK   23  A    between atoms: _51  and  _52
REMARK   24  A    between atoms: _52  and  _54
REMARK   25  A    between atoms: _54  and  ZN_335
REMARK   26  A    between atoms: _55  and  _57
REMARK   27  A    between atoms: _57  and  _58
REMARK   28  A    between atoms: _57  and  _60
REMARK   29  A    between atoms: _60  and  _61
REMARK   30  A    between atoms: _63  and  _65
REMARK   31  A    between atoms: _65  and  _66
REMARK   32  A    between atoms: _65  and  _68
REMARK   33  A    between atoms: _68  and  _69
REMARK   34  A    between atoms: _69  and  _70
REMARK   35  A    between atoms: _73  and  _75
REMARK   36  A    between atoms: _75  and  _76
REMARK   37  A    between atoms: _75  and  _78
REMARK   38  A    between atoms: _78  and  _79
REMARK   39  A    between atoms: _79  and  _80
REMARK   40  A    between atoms: _80  and  _82
REMARK   41  A    between atoms: _82  and  ZN_335
REMARK   42  A    between atoms: _83  and  _85
REMARK   43  A    between atoms: _85  and  _86
REMARK   44  A    between atoms: _89  and  _91
REMARK   45  A    between atoms: _91  and  _92
REMARK   46  A    between atoms: _91  and  _94
REMARK   47  A    between atoms: _94  and  _95
REMARK   48  A    between atoms: _105  and  _107
REMARK   49  A    between atoms: _107  and  _108
REMARK   50  A    between atoms: _107  and  _110
REMARK   51  A    between atoms: _110  and  _111
REMARK   52  A    between atoms: _113  and  _115
REMARK   53  A    between atoms: _115  and  _116
REMARK   54  A    between atoms: _115  and  _118
REMARK   55  A    between atoms: _118  and  _119
REMARK   56  A    between atoms: _122  and  _124
REMARK   57  A    between atoms: _124  and  _125
REMARK   58  A    between atoms: _124  and  _127
REMARK   59  A    between atoms: _127  and  _128
REMARK   60  A    between atoms: _131  and  _133
REMARK   61  A    between atoms: _133  and  _134
REMARK   62  A    between atoms: _133  and  _136
REMARK   63  A    between atoms: _136  and  _137
REMARK   64  A    between atoms: _140  and  _142
REMARK   65  A    between atoms: _142  and  _143
REMARK   66  A    between atoms: _142  and  _145
REMARK   67  A    between atoms: _145  and  _146
REMARK   68  A    between atoms: _149  and  _151
REMARK   69  A    between atoms: _151  and  _152
REMARK   70  A    between atoms: _151  and  _154
REMARK   71  A    between atoms: _154  and  _155
REMARK   72  A    between atoms: _158  and  _160
REMARK   73  A    between atoms: _160  and  _161
REMARK   74  A    between atoms: _160  and  _163
REMARK   75  A    between atoms: _163  and  _164
REMARK   76  A    between atoms: _169  and  _171
REMARK   77  A    between atoms: _171  and  _172
REMARK   78  A    between atoms: _171  and  _174
REMARK   79  A    between atoms: _174  and  _175
REMARK   80  A    between atoms: _181  and  _183
REMARK   81  A    between atoms: _183  and  _184
REMARK   82  A    between atoms: _186  and  _188
REMARK   83  A    between atoms: _188  and  _189
REMARK   84  A    between atoms: _188  and  _191
REMARK   85  A    between atoms: _191  and  _192
REMARK   86  A    between atoms: _194  and  _196
REMARK   87  A    between atoms: _196  and  _197
REMARK   88  A    between atoms: _196  and  _199
REMARK   89  A    between atoms: _202  and  _204
REMARK   90  A    between atoms: _204  and  _205
REMARK   91  A    between atoms: _204  and  _207
REMARK   92  A    between atoms: _207  and  _208
REMARK   93  A    between atoms: _208  and  _209
REMARK   94  A    between atoms: _212  and  _214
REMARK   95  A    between atoms: _214  and  _215
REMARK   96  A    between atoms: _214  and  _217
REMARK   97  A    between atoms: _217  and  _218
REMARK   98  A    between atoms: _221  and  _223
REMARK   99  A    between atoms: _223  and  _224
REMARK  100  A    between atoms: _223  and  _226
REMARK  101  A    between atoms: _226  and  _227
REMARK  102  A    between atoms: _230  and  _232
REMARK  103  A    between atoms: _232  and  _233
REMARK  104  A    between atoms: _232  and  _235
REMARK  105  A    between atoms: _235  and  _236
REMARK  106  A    between atoms: _241  and  _243
REMARK  107  A    between atoms: _243  and  _244
REMARK  108  A    between atoms: _243  and  _246
REMARK  109  A    between atoms: _246  and  _247
REMARK  110  A    between atoms: _250  and  _252
REMARK  111  A    between atoms: _252  and  _253
REMARK  112  A    between atoms: _252  and  _255
REMARK  113  A    between atoms: _255  and  _256
REMARK  114  A    between atoms: _258  and  _260
REMARK  115  A    between atoms: _260  and  _261
REMARK  116  A    between atoms: _260  and  _263
REMARK  117  A    between atoms: _263  and  _264
REMARK  118  A    between atoms: _268  and  _269
REMARK  119  A    between atoms: _274  and  _276
REMARK  120  A    between atoms: _276  and  _277
REMARK  121  A    between atoms: _276  and  _279
REMARK  122  A    between atoms: _279  and  _280
REMARK  123  A    between atoms: _287  and  _288
REMARK  124  A    between atoms: _293  and  _295
REMARK  125  A    between atoms: _295  and  _296
REMARK  126  A    between atoms: _299  and  _301
REMARK  127  A    between atoms: _301  and  _302
REMARK  128  A    between atoms: _301  and  _304
REMARK  129  A    between atoms: _304  and  _305
REMARK  130  A    between atoms: _315  and  _317
REMARK  131  A    between atoms: _317  and  _318
REMARK  132  A    between atoms: _317  and  _320
REMARK  133  A    between atoms: _320  and  _321
REMARK  134  A    between atoms: _325  and  ZN_335
REMARK  135  A    between atoms: _326  and  _328
REMARK  136  A    between atoms: _328  and  _329
REMARK  137  A    between atoms: _328  and  _331
REMARK  138  A    between atoms: _331  and  _332
REMARK                            x       y       z     vdW  Elec       q    Type
REMARK                         _______ _______ _______ _____ _____    ______ ____
ROOT
ATOM      1  O   HOH     1      11.239  41.831  27.722  0.00  0.00    +0.000 OA
ENDROOT
TORSDOF 0
REMARK  Name = ../refined-set-2016/3pb7/3pb7_pocket.pdb
REMARK  138 active torsions:
REMARK  status: ('A' for Active; 'I' for Inactive)
REMARK    1  A    between atoms: _1  and  _3
REMARK    2  A    between atoms: _3  and  _4
REMARK    3  A    between atoms: _3  and  _6
REMARK    4  A    between atoms: _6  and  _7
REMARK    5  A    between atoms: _12  and  _14
REMARK    6  A    between atoms: _14  and  _15
REMARK    7  A    between atoms: _14  and  _17
REMARK    8  A    between atoms: _17  and  _18
REMARK    9  A    between atoms: _18  and  _19
REMARK   10  A    between atoms: _19  and  _20
REMARK   11  A    between atoms: _20  and  _21
REMARK   12  A    between atoms: _25  and  _27
REMARK   13  A    between atoms: _27  and  _28
REMARK   14  A    between atoms: _27  and  _30
REMARK   15  A    between atoms: _30  and  _31
REMARK   16  A    between atoms: _37  and  _39
REMARK   17  A    between atoms: _39  and  _40
REMARK   18  A    between atoms: _39  and  _42
REMARK   19  A    between atoms: _42  and  _43
REMARK   20  A    between atoms: _46  and  _48
REMARK   21  A    between atoms: _48  and  _49
REMARK   22  A    between atoms: _48  and  _51
REMARK   23  A    between atoms: _51  and  _52
REMARK   24  A    between atoms: _52  and  _54
REMARK   25  A    between atoms: _54  and  ZN_335
REMARK   26  A    between atoms: _55  and  _57
REMARK   27  A    between atoms: _57  and  _58
REMARK   28  A    between atoms: _57  and  _60
REMARK   29  A    between atoms: _60  and  _61
REMARK   30  A    between atoms: _63  and  _65
REMARK   31  A    between atoms: _65  and  _66
REMARK   32  A    between atoms: _65  and  _68
REMARK   33  A    between atoms: _68  and  _69
REMARK   34  A    between atoms: _69  and  _70
REMARK   35  A    between atoms: _73  and  _75
REMARK   36  A    between atoms: _75  and  _76
REMARK   37  A    between atoms: _75  and  _78
REMARK   38  A    between atoms: _78  and  _79
REMARK   39  A    between atoms: _79  and  _80
REMARK   40  A    between atoms: _80  and  _82
REMARK   41  A    between atoms: _82  and  ZN_335
REMARK   42  A    between atoms: _83  and  _85
REMARK   43  A    between atoms: _85  and  _86
REMARK   44  A    between atoms: _89  and  _91
REMARK   45  A    between atoms: _91  and  _92
REMARK   46  A    between atoms: _91  and  _94
REMARK   47  A    between atoms: _94  and  _95
REMARK   48  A    between atoms: _105  and  _107
REMARK   49  A    between atoms: _107  and  _108
REMARK   50  A    between atoms: _107  and  _110
REMARK   51  A    between atoms: _110  and  _111
REMARK   52  A    between atoms: _113  and  _115
REMARK   53  A    between atoms: _115  and  _116
REMARK   54  A    between atoms: _115  and  _118
REMARK   55  A    between atoms: _118  and  _119
REMARK   56  A    between atoms: _122  and  _124
REMARK   57  A    between atoms: _124  and  _125
REMARK   58  A    between atoms: _124  and  _127
REMARK   59  A    between atoms: _127  and  _128
REMARK   60  A    between atoms: _131  and  _133
REMARK   61  A    between atoms: _133  and  _134
REMARK   62  A    between atoms: _133  and  _136
REMARK   63  A    between atoms: _136  and  _137
REMARK   64  A    between atoms: _140  and  _142
REMARK   65  A    between atoms: _142  and  _143
REMARK   66  A    between atoms: _142  and  _145
REMARK   67  A    between atoms: _145  and  _146
REMARK   68  A    between atoms: _149  and  _151
REMARK   69  A    between atoms: _151  and  _152
REMARK   70  A    between atoms: _151  and  _154
REMARK   71  A    between atoms: _154  and  _155
REMARK   72  A    between atoms: _158  and  _160
REMARK   73  A    between atoms: _160  and  _161
REMARK   74  A    between atoms: _160  and  _163
REMARK   75  A    between atoms: _163  and  _164
REMARK   76  A    between atoms: _169  and  _171
REMARK   77  A    between atoms: _171  and  _172
REMARK   78  A    between atoms: _171  and  _174
REMARK   79  A    between atoms: _174  and  _175
REMARK   80  A    between atoms: _181  and  _183
REMARK   81  A    between atoms: _183  and  _184
REMARK   82  A    between atoms: _186  and  _188
REMARK   83  A    between atoms: _188  and  _189
REMARK   84  A    between atoms: _188  and  _191
REMARK   85  A    between atoms: _191  and  _192
REMARK   86  A    between atoms: _194  and  _196
REMARK   87  A    between atoms: _196  and  _197
REMARK   88  A    between atoms: _196  and  _199
REMARK   89  A    between atoms: _202  and  _204
REMARK   90  A    between atoms: _204  and  _205
REMARK   91  A    between atoms: _204  and  _207
REMARK   92  A    between atoms: _207  and  _208
REMARK   93  A    between atoms: _208  and  _209
REMARK   94  A    between atoms: _212  and  _214
REMARK   95  A    between atoms: _214  and  _215
REMARK   96  A    between atoms: _214  and  _217
REMARK   97  A    between atoms: _217  and  _218
REMARK   98  A    between atoms: _221  and  _223
REMARK   99  A    between atoms: _223  and  _224
REMARK  100  A    between atoms: _223  and  _226
REMARK  101  A    between atoms: _226  and  _227
REMARK  102  A    between atoms: _230  and  _232
REMARK  103  A    between atoms: _232  and  _233
REMARK  104  A    between atoms: _232  and  _235
REMARK  105  A    between atoms: _235  and  _236
REMARK  106  A    between atoms: _241  and  _243
REMARK  107  A    between atoms: _243  and  _244
REMARK  108  A    between atoms: _243  and  _246
REMARK  109  A    between atoms: _246  and  _247
REMARK  110  A    between atoms: _250  and  _252
REMARK  111  A    between atoms: _252  and  _253
REMARK  112  A    between atoms: _252  and  _255
REMARK  113  A    between atoms: _255  and  _256
REMARK  114  A    between atoms: _258  and  _260
REMARK  115  A    between atoms: _260  and  _261
REMARK  116  A    between atoms: _260  and  _263
REMARK  117  A    between atoms: _263  and  _264
REMARK  118  A    between atoms: _268  and  _269
REMARK  119  A    between atoms: _274  and  _276
REMARK  120  A    between atoms: _276  and  _277
REMARK  121  A    between atoms: _276  and  _279
REMARK  122  A    between atoms: _279  and  _280
REMARK  123  A    between atoms: _287  and  _288
REMARK  124  A    between atoms: _293  and  _295
REMARK  125  A    between atoms: _295  and  _296
REMARK  126  A    between atoms: _299  and  _301
REMARK  127  A    between atoms: _301  and  _302
REMARK  128  A    between atoms: _301  and  _304
REMARK  129  A    between atoms: _304  and  _305
REMARK  130  A    between atoms: _315  and  _317
REMARK  131  A    between atoms: _317  and  _318
REMARK  132  A    between atoms: _317  and  _320
REMARK  133  A    between atoms: _320  and  _321
REMARK  134  A    between atoms: _325  and  ZN_335
REMARK  135  A    between atoms: _326  and  _328
REMARK  136  A    between atoms: _328  and  _329
REMARK  137  A    between atoms: _328  and  _331
REMARK  138  A    between atoms: _331  and  _332
REMARK                            x       y       z     vdW  Elec       q    Type
REMARK                         _______ _______ _______ _____ _____    ______ ____
ROOT
ATOM      1  O   HOH     1       9.871  49.135  31.309  0.00  0.00    +0.000 OA
ENDROOT
TORSDOF 0
REMARK  Name = ../refined-set-2016/3pb7/3pb7_pocket.pdb
REMARK  138 active torsions:
REMARK  status: ('A' for Active; 'I' for Inactive)
REMARK    1  A    between atoms: _1  and  _3
REMARK    2  A    between atoms: _3  and  _4
REMARK    3  A    between atoms: _3  and  _6
REMARK    4  A    between atoms: _6  and  _7
REMARK    5  A    between atoms: _12  and  _14
REMARK    6  A    between atoms: _14  and  _15
REMARK    7  A    between atoms: _14  and  _17
REMARK    8  A    between atoms: _17  and  _18
REMARK    9  A    between atoms: _18  and  _19
REMARK   10  A    between atoms: _19  and  _20
REMARK   11  A    between atoms: _20  and  _21
REMARK   12  A    between atoms: _25  and  _27
REMARK   13  A    between atoms: _27  and  _28
REMARK   14  A    between atoms: _27  and  _30
REMARK   15  A    between atoms: _30  and  _31
REMARK   16  A    between atoms: _37  and  _39
REMARK   17  A    between atoms: _39  and  _40
REMARK   18  A    between atoms: _39  and  _42
REMARK   19  A    between atoms: _42  and  _43
REMARK   20  A    between atoms: _46  and  _48
REMARK   21  A    between atoms: _48  and  _49
REMARK   22  A    between atoms: _48  and  _51
REMARK   23  A    between atoms: _51  and  _52
REMARK   24  A    between atoms: _52  and  _54
REMARK   25  A    between atoms: _54  and  ZN_335
REMARK   26  A    between atoms: _55  and  _57
REMARK   27  A    between atoms: _57  and  _58
REMARK   28  A    between atoms: _57  and  _60
REMARK   29  A    between atoms: _60  and  _61
REMARK   30  A    between atoms: _63  and  _65
REMARK   31  A    between atoms: _65  and  _66
REMARK   32  A    between atoms: _65  and  _68
REMARK   33  A    between atoms: _68  and  _69
REMARK   34  A    between atoms: _69  and  _70
REMARK   35  A    between atoms: _73  and  _75
REMARK   36  A    between atoms: _75  and  _76
REMARK   37  A    between atoms: _75  and  _78
REMARK   38  A    between atoms: _78  and  _79
REMARK   39  A    between atoms: _79  and  _80
REMARK   40  A    between atoms: _80  and  _82
REMARK   41  A    between atoms: _82  and  ZN_335
REMARK   42  A    between atoms: _83  and  _85
REMARK   43  A    between atoms: _85  and  _86
REMARK   44  A    between atoms: _89  and  _91
REMARK   45  A    between atoms: _91  and  _92
REMARK   46  A    between atoms: _91  and  _94
REMARK   47  A    between atoms: _94  and  _95
REMARK   48  A    between atoms: _105  and  _107
REMARK   49  A    between atoms: _107  and  _108
REMARK   50  A    between atoms: _107  and  _110
REMARK   51  A    between atoms: _110  and  _111
REMARK   52  A    between atoms: _113  and  _115
REMARK   53  A    between atoms: _115  and  _116
REMARK   54  A    between atoms: _115  and  _118
REMARK   55  A    between atoms: _118  and  _119
REMARK   56  A    between atoms: _122  and  _124
REMARK   57  A    between atoms: _124  and  _125
REMARK   58  A    between atoms: _124  and  _127
REMARK   59  A    between atoms: _127  and  _128
REMARK   60  A    between atoms: _131  and  _133
REMARK   61  A    between atoms: _133  and  _134
REMARK   62  A    between atoms: _133  and  _136
REMARK   63  A    between atoms: _136  and  _137
REMARK   64  A    between atoms: _140  and  _142
REMARK   65  A    between atoms: _142  and  _143
REMARK   66  A    between atoms: _142  and  _145
REMARK   67  A    between atoms: _145  and  _146
REMARK   68  A    between atoms: _149  and  _151
REMARK   69  A    between atoms: _151  and  _152
REMARK   70  A    between atoms: _151  and  _154
REMARK   71  A    between atoms: _154  and  _155
REMARK   72  A    between atoms: _158  and  _160
REMARK   73  A    between atoms: _160  and  _161
REMARK   74  A    between atoms: _160  and  _163
REMARK   75  A    between atoms: _163  and  _164
REMARK   76  A    between atoms: _169  and  _171
REMARK   77  A    between atoms: _171  and  _172
REMARK   78  A    between atoms: _171  and  _174
REMARK   79  A    between atoms: _174  and  _175
REMARK   80  A    between atoms: _181  and  _183
REMARK   81  A    between atoms: _183  and  _184
REMARK   82  A    between atoms: _186  and  _188
REMARK   83  A    between atoms: _188  and  _189
REMARK   84  A    between atoms: _188  and  _191
REMARK   85  A    between atoms: _191  and  _192
REMARK   86  A    between atoms: _194  and  _196
REMARK   87  A    between atoms: _196  and  _197
REMARK   88  A    between atoms: _196  and  _199
REMARK   89  A    between atoms: _202  and  _204
REMARK   90  A    between atoms: _204  and  _205
REMARK   91  A    between atoms: _204  and  _207
REMARK   92  A    between atoms: _207  and  _208
REMARK   93  A    between atoms: _208  and  _209
REMARK   94  A    between atoms: _212  and  _214
REMARK   95  A    between atoms: _214  and  _215
REMARK   96  A    between atoms: _214  and  _217
REMARK   97  A    between atoms: _217  and  _218
REMARK   98  A    between atoms: _221  and  _223
REMARK   99  A    between atoms: _223  and  _224
REMARK  100  A    between atoms: _223  and  _226
REMARK  101  A    between atoms: _226  and  _227
REMARK  102  A    between atoms: _230  and  _232
REMARK  103  A    between atoms: _232  and  _233
REMARK  104  A    between atoms: _232  and  _235
REMARK  105  A    between atoms: _235  and  _236
REMARK  106  A    between atoms: _241  and  _243
REMARK  107  A    between atoms: _243  and  _244
REMARK  108  A    between atoms: _243  and  _246
REMARK  109  A    between atoms: _246  and  _247
REMARK  110  A    between atoms: _250  and  _252
REMARK  111  A    between atoms: _252  and  _253
REMARK  112  A    between atoms: _252  and  _255
REMARK  113  A    between atoms: _255  and  _256
REMARK  114  A    between atoms: _258  and  _260
REMARK  115  A    between atoms: _260  and  _261
REMARK  116  A    between atoms: _260  and  _263
REMARK  117  A    between atoms: _263  and  _264
REMARK  118  A    between atoms: _268  and  _269
REMARK  119  A    between atoms: _274  and  _276
REMARK  120  A    between atoms: _276  and  _277
REMARK  121  A    between atoms: _276  and  _279
REMARK  122  A    between atoms: _279  and  _280
REMARK  123  A    between atoms: _287  and  _288
REMARK  124  A    between atoms: _293  and  _295
REMARK  125  A    between atoms: _295  and  _296
REMARK  126  A    between atoms: _299  and  _301
REMARK  127  A    between atoms: _301  and  _302
REMARK  128  A    between atoms: _301  and  _304
REMARK  129  A    between atoms: _304  and  _305
REMARK  130  A    between atoms: _315  and  _317
REMARK  131  A    between atoms: _317  and  _318
REMARK  132  A    between atoms: _317  and  _320
REMARK  133  A    between atoms: _320  and  _321
REMARK  134  A    between atoms: _325  and  ZN_335
REMARK  135  A    between atoms: _326  and  _328
REMARK  136  A    between atoms: _328  and  _329
REMARK  137  A    between atoms: _328  and  _331
REMARK  138  A    between atoms: _331  and  _332
REMARK                            x       y       z     vdW  Elec       q    Type
REMARK                         _______ _______ _______ _____ _____    ______ ____
ROOT
ATOM      1  O   HOH     1       4.329  48.984  30.020  0.00  0.00    +0.000 OA
ENDROOT
TORSDOF 0
REMARK  Name = ../refined-set-2016/3pb7/3pb7_pocket.pdb
REMARK  138 active torsions:
REMARK  status: ('A' for Active; 'I' for Inactive)
REMARK    1  A    between atoms: _1  and  _3
REMARK    2  A    between atoms: _3  and  _4
REMARK    3  A    between atoms: _3  and  _6
REMARK    4  A    between atoms: _6  and  _7
REMARK    5  A    between atoms: _12  and  _14
REMARK    6  A    between atoms: _14  and  _15
REMARK    7  A    between atoms: _14  and  _17
REMARK    8  A    between atoms: _17  and  _18
REMARK    9  A    between atoms: _18  and  _19
REMARK   10  A    between atoms: _19  and  _20
REMARK   11  A    between atoms: _20  and  _21
REMARK   12  A    between atoms: _25  and  _27
REMARK   13  A    between atoms: _27  and  _28
REMARK   14  A    between atoms: _27  and  _30
REMARK   15  A    between atoms: _30  and  _31
REMARK   16  A    between atoms: _37  and  _39
REMARK   17  A    between atoms: _39  and  _40
REMARK   18  A    between atoms: _39  and  _42
REMARK   19  A    between atoms: _42  and  _43
REMARK   20  A    between atoms: _46  and  _48
REMARK   21  A    between atoms: _48  and  _49
REMARK   22  A    between atoms: _48  and  _51
REMARK   23  A    between atoms: _51  and  _52
REMARK   24  A    between atoms: _52  and  _54
REMARK   25  A    between atoms: _54  and  ZN_335
REMARK   26  A    between atoms: _55  and  _57
REMARK   27  A    between atoms: _57  and  _58
REMARK   28  A    between atoms: _57  and  _60
REMARK   29  A    between atoms: _60  and  _61
REMARK   30  A    between atoms: _63  and  _65
REMARK   31  A    between atoms: _65  and  _66
REMARK   32  A    between atoms: _65  and  _68
REMARK   33  A    between atoms: _68  and  _69
REMARK   34  A    between atoms: _69  and  _70
REMARK   35  A    between atoms: _73  and  _75
REMARK   36  A    between atoms: _75  and  _76
REMARK   37  A    between atoms: _75  and  _78
REMARK   38  A    between atoms: _78  and  _79
REMARK   39  A    between atoms: _79  and  _80
REMARK   40  A    between atoms: _80  and  _82
REMARK   41  A    between atoms: _82  and  ZN_335
REMARK   42  A    between atoms: _83  and  _85
REMARK   43  A    between atoms: _85  and  _86
REMARK   44  A    between atoms: _89  and  _91
REMARK   45  A    between atoms: _91  and  _92
REMARK   46  A    between atoms: _91  and  _94
REMARK   47  A    between atoms: _94  and  _95
REMARK   48  A    between atoms: _105  and  _107
REMARK   49  A    between atoms: _107  and  _108
REMARK   50  A    between atoms: _107  and  _110
REMARK   51  A    between atoms: _110  and  _111
REMARK   52  A    between atoms: _113  and  _115
REMARK   53  A    between atoms: _115  and  _116
REMARK   54  A    between atoms: _115  and  _118
REMARK   55  A    between atoms: _118  and  _119
REMARK   56  A    between atoms: _122  and  _124
REMARK   57  A    between atoms: _124  and  _125
REMARK   58  A    between atoms: _124  and  _127
REMARK   59  A    between atoms: _127  and  _128
REMARK   60  A    between atoms: _131  and  _133
REMARK   61  A    between atoms: _133  and  _134
REMARK   62  A    between atoms: _133  and  _136
REMARK   63  A    between atoms: _136  and  _137
REMARK   64  A    between atoms: _140  and  _142
REMARK   65  A    between atoms: _142  and  _143
REMARK   66  A    between atoms: _142  and  _145
REMARK   67  A    between atoms: _145  and  _146
REMARK   68  A    between atoms: _149  and  _151
REMARK   69  A    between atoms: _151  and  _152
REMARK   70  A    between atoms: _151  and  _154
REMARK   71  A    between atoms: _154  and  _155
REMARK   72  A    between atoms: _158  and  _160
REMARK   73  A    between atoms: _160  and  _161
REMARK   74  A    between atoms: _160  and  _163
REMARK   75  A    between atoms: _163  and  _164
REMARK   76  A    between atoms: _169  and  _171
REMARK   77  A    between atoms: _171  and  _172
REMARK   78  A    between atoms: _171  and  _174
REMARK   79  A    between atoms: _174  and  _175
REMARK   80  A    between atoms: _181  and  _183
REMARK   81  A    between atoms: _183  and  _184
REMARK   82  A    between atoms: _186  and  _188
REMARK   83  A    between atoms: _188  and  _189
REMARK   84  A    between atoms: _188  and  _191
REMARK   85  A    between atoms: _191  and  _192
REMARK   86  A    between atoms: _194  and  _196
REMARK   87  A    between atoms: _196  and  _197
REMARK   88  A    between atoms: _196  and  _199
REMARK   89  A    between atoms: _202  and  _204
REMARK   90  A    between atoms: _204  and  _205
REMARK   91  A    between atoms: _204  and  _207
REMARK   92  A    between atoms: _207  and  _208
REMARK   93  A    between atoms: _208  and  _209
REMARK   94  A    between atoms: _212  and  _214
REMARK   95  A    between atoms: _214  and  _215
REMARK   96  A    between atoms: _214  and  _217
REMARK   97  A    between atoms: _217  and  _218
REMARK   98  A    between atoms: _221  and  _223
REMARK   99  A    between atoms: _223  and  _224
REMARK  100  A    between atoms: _223  and  _226
REMARK  101  A    between atoms: _226  and  _227
REMARK  102  A    between atoms: _230  and  _232
REMARK  103  A    between atoms: _232  and  _233
REMARK  104  A    between atoms: _232  and  _235
REMARK  105  A    between atoms: _235  and  _236
REMARK  106  A    between atoms: _241  and  _243
REMARK  107  A    between atoms: _243  and  _244
REMARK  108  A    between atoms: _243  and  _246
REMARK  109  A    between atoms: _246  and  _247
REMARK  110  A    between atoms: _250  and  _252
REMARK  111  A    between atoms: _252  and  _253
REMARK  112  A    between atoms: _252  and  _255
REMARK  113  A    between atoms: _255  and  _256
REMARK  114  A    between atoms: _258  and  _260
REMARK  115  A    between atoms: _260  and  _261
REMARK  116  A    between atoms: _260  and  _263
REMARK  117  A    between atoms: _263  and  _264
REMARK  118  A    between atoms: _268  and  _269
REMARK  119  A    between atoms: _274  and  _276
REMARK  120  A    between atoms: _276  and  _277
REMARK  121  A    between atoms: _276  and  _279
REMARK  122  A    between atoms: _279  and  _280
REMARK  123  A    between atoms: _287  and  _288
REMARK  124  A    between atoms: _293  and  _295
REMARK  125  A    between atoms: _295  and  _296
REMARK  126  A    between atoms: _299  and  _301
REMARK  127  A    between atoms: _301  and  _302
REMARK  128  A    between atoms: _301  and  _304
REMARK  129  A    between atoms: _304  and  _305
REMARK  130  A    between atoms: _315  and  _317
REMARK  131  A    between atoms: _317  and  _318
REMARK  132  A    between atoms: _317  and  _320
REMARK  133  A    between atoms: _320  and  _321
REMARK  134  A    between atoms: _325  and  ZN_335
REMARK  135  A    between atoms: _326  and  _328
REMARK  136  A    between atoms: _328  and  _329
REMARK  137  A    between atoms: _328  and  _331
REMARK  138  A    between atoms: _331  and  _332
REMARK                            x       y       z     vdW  Elec       q    Type
REMARK                         _______ _______ _______ _____ _____    ______ ____
ROOT
ATOM      1  O   HOH     1       2.472  39.211  18.704  0.00  0.00    +0.000 OA
ENDROOT
TORSDOF 0
REMARK  Name = ../refined-set-2016/3pb7/3pb7_pocket.pdb
REMARK  138 active torsions:
REMARK  status: ('A' for Active; 'I' for Inactive)
REMARK    1  A    between atoms: _1  and  _3
REMARK    2  A    between atoms: _3  and  _4
REMARK    3  A    between atoms: _3  and  _6
REMARK    4  A    between atoms: _6  and  _7
REMARK    5  A    between atoms: _12  and  _14
REMARK    6  A    between atoms: _14  and  _15
REMARK    7  A    between atoms: _14  and  _17
REMARK    8  A    between atoms: _17  and  _18
REMARK    9  A    between atoms: _18  and  _19
REMARK   10  A    between atoms: _19  and  _20
REMARK   11  A    between atoms: _20  and  _21
REMARK   12  A    between atoms: _25  and  _27
REMARK   13  A    between atoms: _27  and  _28
REMARK   14  A    between atoms: _27  and  _30
REMARK   15  A    between atoms: _30  and  _31
REMARK   16  A    between atoms: _37  and  _39
REMARK   17  A    between atoms: _39  and  _40
REMARK   18  A    between atoms: _39  and  _42
REMARK   19  A    between atoms: _42  and  _43
REMARK   20  A    between atoms: _46  and  _48
REMARK   21  A    between atoms: _48  and  _49
REMARK   22  A    between atoms: _48  and  _51
REMARK   23  A    between atoms: _51  and  _52
REMARK   24  A    between atoms: _52  and  _54
REMARK   25  A    between atoms: _54  and  ZN_335
REMARK   26  A    between atoms: _55  and  _57
REMARK   27  A    between atoms: _57  and  _58
REMARK   28  A    between atoms: _57  and  _60
REMARK   29  A    between atoms: _60  and  _61
REMARK   30  A    between atoms: _63  and  _65
REMARK   31  A    between atoms: _65  and  _66
REMARK   32  A    between atoms: _65  and  _68
REMARK   33  A    between atoms: _68  and  _69
REMARK   34  A    between atoms: _69  and  _70
REMARK   35  A    between atoms: _73  and  _75
REMARK   36  A    between atoms: _75  and  _76
REMARK   37  A    between atoms: _75  and  _78
REMARK   38  A    between atoms: _78  and  _79
REMARK   39  A    between atoms: _79  and  _80
REMARK   40  A    between atoms: _80  and  _82
REMARK   41  A    between atoms: _82  and  ZN_335
REMARK   42  A    between atoms: _83  and  _85
REMARK   43  A    between atoms: _85  and  _86
REMARK   44  A    between atoms: _89  and  _91
REMARK   45  A    between atoms: _91  and  _92
REMARK   46  A    between atoms: _91  and  _94
REMARK   47  A    between atoms: _94  and  _95
REMARK   48  A    between atoms: _105  and  _107
REMARK   49  A    between atoms: _107  and  _108
REMARK   50  A    between atoms: _107  and  _110
REMARK   51  A    between atoms: _110  and  _111
REMARK   52  A    between atoms: _113  and  _115
REMARK   53  A    between atoms: _115  and  _116
REMARK   54  A    between atoms: _115  and  _118
REMARK   55  A    between atoms: _118  and  _119
REMARK   56  A    between atoms: _122  and  _124
REMARK   57  A    between atoms: _124  and  _125
REMARK   58  A    between atoms: _124  and  _127
REMARK   59  A    between atoms: _127  and  _128
REMARK   60  A    between atoms: _131  and  _133
REMARK   61  A    between atoms: _133  and  _134
REMARK   62  A    between atoms: _133  and  _136
REMARK   63  A    between atoms: _136  and  _137
REMARK   64  A    between atoms: _140  and  _142
REMARK   65  A    between atoms: _142  and  _143
REMARK   66  A    between atoms: _142  and  _145
REMARK   67  A    between atoms: _145  and  _146
REMARK   68  A    between atoms: _149  and  _151
REMARK   69  A    between atoms: _151  and  _152
REMARK   70  A    between atoms: _151  and  _154
REMARK   71  A    between atoms: _154  and  _155
REMARK   72  A    between atoms: _158  and  _160
REMARK   73  A    between atoms: _160  and  _161
REMARK   74  A    between atoms: _160  and  _163
REMARK   75  A    between atoms: _163  and  _164
REMARK   76  A    between atoms: _169  and  _171
REMARK   77  A    between atoms: _171  and  _172
REMARK   78  A    between atoms: _171  and  _174
REMARK   79  A    between atoms: _174  and  _175
REMARK   80  A    between atoms: _181  and  _183
REMARK   81  A    between atoms: _183  and  _184
REMARK   82  A    between atoms: _186  and  _188
REMARK   83  A    between atoms: _188  and  _189
REMARK   84  A    between atoms: _188  and  _191
REMARK   85  A    between atoms: _191  and  _192
REMARK   86  A    between atoms: _194  and  _196
REMARK   87  A    between atoms: _196  and  _197
REMARK   88  A    between atoms: _196  and  _199
REMARK   89  A    between atoms: _202  and  _204
REMARK   90  A    between atoms: _204  and  _205
REMARK   91  A    between atoms: _204  and  _207
REMARK   92  A    between atoms: _207  and  _208
REMARK   93  A    between atoms: _208  and  _209
REMARK   94  A    between atoms: _212  and  _214
REMARK   95  A    between atoms: _214  and  _215
REMARK   96  A    between atoms: _214  and  _217
REMARK   97  A    between atoms: _217  and  _218
REMARK   98  A    between atoms: _221  and  _223
REMARK   99  A    between atoms: _223  and  _224
REMARK  100  A    between atoms: _223  and  _226
REMARK  101  A    between atoms: _226  and  _227
REMARK  102  A    between atoms: _230  and  _232
REMARK  103  A    between atoms: _232  and  _233
REMARK  104  A    between atoms: _232  and  _235
REMARK  105  A    between atoms: _235  and  _236
REMARK  106  A    between atoms: _241  and  _243
REMARK  107  A    between atoms: _243  and  _244
REMARK  108  A    between atoms: _243  and  _246
REMARK  109  A    between atoms: _246  and  _247
REMARK  110  A    between atoms: _250  and  _252
REMARK  111  A    between atoms: _252  and  _253
REMARK  112  A    between atoms: _252  and  _255
REMARK  113  A    between atoms: _255  and  _256
REMARK  114  A    between atoms: _258  and  _260
REMARK  115  A    between atoms: _260  and  _261
REMARK  116  A    between atoms: _260  and  _263
REMARK  117  A    between atoms: _263  and  _264
REMARK  118  A    between atoms: _268  and  _269
REMARK  119  A    between atoms: _274  and  _276
REMARK  120  A    between atoms: _276  and  _277
REMARK  121  A    between atoms: _276  and  _279
REMARK  122  A    between atoms: _279  and  _280
REMARK  123  A    between atoms: _287  and  _288
REMARK  124  A    between atoms: _293  and  _295
REMARK  125  A    between atoms: _295  and  _296
REMARK  126  A    between atoms: _299  and  _301
REMARK  127  A    between atoms: _301  and  _302
REMARK  128  A    between atoms: _301  and  _304
REMARK  129  A    between atoms: _304  and  _305
REMARK  130  A    between atoms: _315  and  _317
REMARK  131  A    between atoms: _317  and  _318
REMARK  132  A    between atoms: _317  and  _320
REMARK  133  A    between atoms: _320  and  _321
REMARK  134  A    between atoms: _325  and  ZN_335
REMARK  135  A    between atoms: _326  and  _328
REMARK  136  A    between atoms: _328  and  _329
REMARK  137  A    between atoms: _328  and  _331
REMARK  138  A    between atoms: _331  and  _332
REMARK                            x       y       z     vdW  Elec       q    Type
REMARK                         _______ _______ _______ _____ _____    ______ ____
ROOT
ATOM      1  O   HOH     1      10.990  53.197  25.734  0.00  0.00    +0.000 OA
ENDROOT
TORSDOF 0
REMARK  Name = ../refined-set-2016/3pb7/3pb7_pocket.pdb
REMARK  138 active torsions:
REMARK  status: ('A' for Active; 'I' for Inactive)
REMARK    1  A    between atoms: _1  and  _3
REMARK    2  A    between atoms: _3  and  _4
REMARK    3  A    between atoms: _3  and  _6
REMARK    4  A    between atoms: _6  and  _7
REMARK    5  A    between atoms: _12  and  _14
REMARK    6  A    between atoms: _14  and  _15
REMARK    7  A    between atoms: _14  and  _17
REMARK    8  A    between atoms: _17  and  _18
REMARK    9  A    between atoms: _18  and  _19
REMARK   10  A    between atoms: _19  and  _20
REMARK   11  A    between atoms: _20  and  _21
REMARK   12  A    between atoms: _25  and  _27
REMARK   13  A    between atoms: _27  and  _28
REMARK   14  A    between atoms: _27  and  _30
REMARK   15  A    between atoms: _30  and  _31
REMARK   16  A    between atoms: _37  and  _39
REMARK   17  A    between atoms: _39  and  _40
REMARK   18  A    between atoms: _39  and  _42
REMARK   19  A    between atoms: _42  and  _43
REMARK   20  A    between atoms: _46  and  _48
REMARK   21  A    between atoms: _48  and  _49
REMARK   22  A    between atoms: _48  and  _51
REMARK   23  A    between atoms: _51  and  _52
REMARK   24  A    between atoms: _52  and  _54
REMARK   25  A    between atoms: _54  and  ZN_335
REMARK   26  A    between atoms: _55  and  _57
REMARK   27  A    between atoms: _57  and  _58
REMARK   28  A    between atoms: _57  and  _60
REMARK   29  A    between atoms: _60  and  _61
REMARK   30  A    between atoms: _63  and  _65
REMARK   31  A    between atoms: _65  and  _66
REMARK   32  A    between atoms: _65  and  _68
REMARK   33  A    between atoms: _68  and  _69
REMARK   34  A    between atoms: _69  and  _70
REMARK   35  A    between atoms: _73  and  _75
REMARK   36  A    between atoms: _75  and  _76
REMARK   37  A    between atoms: _75  and  _78
REMARK   38  A    between atoms: _78  and  _79
REMARK   39  A    between atoms: _79  and  _80
REMARK   40  A    between atoms: _80  and  _82
REMARK   41  A    between atoms: _82  and  ZN_335
REMARK   42  A    between atoms: _83  and  _85
REMARK   43  A    between atoms: _85  and  _86
REMARK   44  A    between atoms: _89  and  _91
REMARK   45  A    between atoms: _91  and  _92
REMARK   46  A    between atoms: _91  and  _94
REMARK   47  A    between atoms: _94  and  _95
REMARK   48  A    between atoms: _105  and  _107
REMARK   49  A    between atoms: _107  and  _108
REMARK   50  A    between atoms: _107  and  _110
REMARK   51  A    between atoms: _110  and  _111
REMARK   52  A    between atoms: _113  and  _115
REMARK   53  A    between atoms: _115  and  _116
REMARK   54  A    between atoms: _115  and  _118
REMARK   55  A    between atoms: _118  and  _119
REMARK   56  A    between atoms: _122  and  _124
REMARK   57  A    between atoms: _124  and  _125
REMARK   58  A    between atoms: _124  and  _127
REMARK   59  A    between atoms: _127  and  _128
REMARK   60  A    between atoms: _131  and  _133
REMARK   61  A    between atoms: _133  and  _134
REMARK   62  A    between atoms: _133  and  _136
REMARK   63  A    between atoms: _136  and  _137
REMARK   64  A    between atoms: _140  and  _142
REMARK   65  A    between atoms: _142  and  _143
REMARK   66  A    between atoms: _142  and  _145
REMARK   67  A    between atoms: _145  and  _146
REMARK   68  A    between atoms: _149  and  _151
REMARK   69  A    between atoms: _151  and  _152
REMARK   70  A    between atoms: _151  and  _154
REMARK   71  A    between atoms: _154  and  _155
REMARK   72  A    between atoms: _158  and  _160
REMARK   73  A    between atoms: _160  and  _161
REMARK   74  A    between atoms: _160  and  _163
REMARK   75  A    between atoms: _163  and  _164
REMARK   76  A    between atoms: _169  and  _171
REMARK   77  A    between atoms: _171  and  _172
REMARK   78  A    between atoms: _171  and  _174
REMARK   79  A    between atoms: _174  and  _175
REMARK   80  A    between atoms: _181  and  _183
REMARK   81  A    between atoms: _183  and  _184
REMARK   82  A    between atoms: _186  and  _188
REMARK   83  A    between atoms: _188  and  _189
REMARK   84  A    between atoms: _188  and  _191
REMARK   85  A    between atoms: _191  and  _192
REMARK   86  A    between atoms: _194  and  _196
REMARK   87  A    between atoms: _196  and  _197
REMARK   88  A    between atoms: _196  and  _199
REMARK   89  A    between atoms: _202  and  _204
REMARK   90  A    between atoms: _204  and  _205
REMARK   91  A    between atoms: _204  and  _207
REMARK   92  A    between atoms: _207  and  _208
REMARK   93  A    between atoms: _208  and  _209
REMARK   94  A    between atoms: _212  and  _214
REMARK   95  A    between atoms: _214  and  _215
REMARK   96  A    between atoms: _214  and  _217
REMARK   97  A    between atoms: _217  and  _218
REMARK   98  A    between atoms: _221  and  _223
REMARK   99  A    between atoms: _223  and  _224
REMARK  100  A    between atoms: _223  and  _226
REMARK  101  A    between atoms: _226  and  _227
REMARK  102  A    between atoms: _230  and  _232
REMARK  103  A    between atoms: _232  and  _233
REMARK  104  A    between atoms: _232  and  _235
REMARK  105  A    between atoms: _235  and  _236
REMARK  106  A    between atoms: _241  and  _243
REMARK  107  A    between atoms: _243  and  _244
REMARK  108  A    between atoms: _243  and  _246
REMARK  109  A    between atoms: _246  and  _247
REMARK  110  A    between atoms: _250  and  _252
REMARK  111  A    between atoms: _252  and  _253
REMARK  112  A    between atoms: _252  and  _255
REMARK  113  A    between atoms: _255  and  _256
REMARK  114  A    between atoms: _258  and  _260
REMARK  115  A    between atoms: _260  and  _261
REMARK  116  A    between atoms: _260  and  _263
REMARK  117  A    between atoms: _263  and  _264
REMARK  118  A    between atoms: _268  and  _269
REMARK  119  A    between atoms: _274  and  _276
REMARK  120  A    between atoms: _276  and  _277
REMARK  121  A    between atoms: _276  and  _279
REMARK  122  A    between atoms: _279  and  _280
REMARK  123  A    between atoms: _287  and  _288
REMARK  124  A    between atoms: _293  and  _295
REMARK  125  A    between atoms: _295  and  _296
REMARK  126  A    between atoms: _299  and  _301
REMARK  127  A    between atoms: _301  and  _302
REMARK  128  A    between atoms: _301  and  _304
REMARK  129  A    between atoms: _304  and  _305
REMARK  130  A    between atoms: _315  and  _317
REMARK  131  A    between atoms: _317  and  _318
REMARK  132  A    between atoms: _317  and  _320
REMARK  133  A    between atoms: _320  and  _321
REMARK  134  A    between atoms: _325  and  ZN_335
REMARK  135  A    between atoms: _326  and  _328
REMARK  136  A    between atoms: _328  and  _329
REMARK  137  A    between atoms: _328  and  _331
REMARK  138  A    between atoms: _331  and  _332
REMARK                            x       y       z     vdW  Elec       q    Type
REMARK                         _______ _______ _______ _____ _____    ______ ____
ROOT
ATOM      1  O   HOH     1      -0.795  47.793  20.734  0.00  0.00    +0.000 OA
ENDROOT
TORSDOF 0
REMARK  Name = ../refined-set-2016/3pb7/3pb7_pocket.pdb
REMARK  138 active torsions:
REMARK  status: ('A' for Active; 'I' for Inactive)
REMARK    1  A    between atoms: _1  and  _3
REMARK    2  A    between atoms: _3  and  _4
REMARK    3  A    between atoms: _3  and  _6
REMARK    4  A    between atoms: _6  and  _7
REMARK    5  A    between atoms: _12  and  _14
REMARK    6  A    between atoms: _14  and  _15
REMARK    7  A    between atoms: _14  and  _17
REMARK    8  A    between atoms: _17  and  _18
REMARK    9  A    between atoms: _18  and  _19
REMARK   10  A    between atoms: _19  and  _20
REMARK   11  A    between atoms: _20  and  _21
REMARK   12  A    between atoms: _25  and  _27
REMARK   13  A    between atoms: _27  and  _28
REMARK   14  A    between atoms: _27  and  _30
REMARK   15  A    between atoms: _30  and  _31
REMARK   16  A    between atoms: _37  and  _39
REMARK   17  A    between atoms: _39  and  _40
REMARK   18  A    between atoms: _39  and  _42
REMARK   19  A    between atoms: _42  and  _43
REMARK   20  A    between atoms: _46  and  _48
REMARK   21  A    between atoms: _48  and  _49
REMARK   22  A    between atoms: _48  and  _51
REMARK   23  A    between atoms: _51  and  _52
REMARK   24  A    between atoms: _52  and  _54
REMARK   25  A    between atoms: _54  and  ZN_335
REMARK   26  A    between atoms: _55  and  _57
REMARK   27  A    between atoms: _57  and  _58
REMARK   28  A    between atoms: _57  and  _60
REMARK   29  A    between atoms: _60  and  _61
REMARK   30  A    between atoms: _63  and  _65
REMARK   31  A    between atoms: _65  and  _66
REMARK   32  A    between atoms: _65  and  _68
REMARK   33  A    between atoms: _68  and  _69
REMARK   34  A    between atoms: _69  and  _70
REMARK   35  A    between atoms: _73  and  _75
REMARK   36  A    between atoms: _75  and  _76
REMARK   37  A    between atoms: _75  and  _78
REMARK   38  A    between atoms: _78  and  _79
REMARK   39  A    between atoms: _79  and  _80
REMARK   40  A    between atoms: _80  and  _82
REMARK   41  A    between atoms: _82  and  ZN_335
REMARK   42  A    between atoms: _83  and  _85
REMARK   43  A    between atoms: _85  and  _86
REMARK   44  A    between atoms: _89  and  _91
REMARK   45  A    between atoms: _91  and  _92
REMARK   46  A    between atoms: _91  and  _94
REMARK   47  A    between atoms: _94  and  _95
REMARK   48  A    between atoms: _105  and  _107
REMARK   49  A    between atoms: _107  and  _108
REMARK   50  A    between atoms: _107  and  _110
REMARK   51  A    between atoms: _110  and  _111
REMARK   52  A    between atoms: _113  and  _115
REMARK   53  A    between atoms: _115  and  _116
REMARK   54  A    between atoms: _115  and  _118
REMARK   55  A    between atoms: _118  and  _119
REMARK   56  A    between atoms: _122  and  _124
REMARK   57  A    between atoms: _124  and  _125
REMARK   58  A    between atoms: _124  and  _127
REMARK   59  A    between atoms: _127  and  _128
REMARK   60  A    between atoms: _131  and  _133
REMARK   61  A    between atoms: _133  and  _134
REMARK   62  A    between atoms: _133  and  _136
REMARK   63  A    between atoms: _136  and  _137
REMARK   64  A    between atoms: _140  and  _142
REMARK   65  A    between atoms: _142  and  _143
REMARK   66  A    between atoms: _142  and  _145
REMARK   67  A    between atoms: _145  and  _146
REMARK   68  A    between atoms: _149  and  _151
REMARK   69  A    between atoms: _151  and  _152
REMARK   70  A    between atoms: _151  and  _154
REMARK   71  A    between atoms: _154  and  _155
REMARK   72  A    between atoms: _158  and  _160
REMARK   73  A    between atoms: _160  and  _161
REMARK   74  A    between atoms: _160  and  _163
REMARK   75  A    between atoms: _163  and  _164
REMARK   76  A    between atoms: _169  and  _171
REMARK   77  A    between atoms: _171  and  _172
REMARK   78  A    between atoms: _171  and  _174
REMARK   79  A    between atoms: _174  and  _175
REMARK   80  A    between atoms: _181  and  _183
REMARK   81  A    between atoms: _183  and  _184
REMARK   82  A    between atoms: _186  and  _188
REMARK   83  A    between atoms: _188  and  _189
REMARK   84  A    between atoms: _188  and  _191
REMARK   85  A    between atoms: _191  and  _192
REMARK   86  A    between atoms: _194  and  _196
REMARK   87  A    between atoms: _196  and  _197
REMARK   88  A    between atoms: _196  and  _199
REMARK   89  A    between atoms: _202  and  _204
REMARK   90  A    between atoms: _204  and  _205
REMARK   91  A    between atoms: _204  and  _207
REMARK   92  A    between atoms: _207  and  _208
REMARK   93  A    between atoms: _208  and  _209
REMARK   94  A    between atoms: _212  and  _214
REMARK   95  A    between atoms: _214  and  _215
REMARK   96  A    between atoms: _214  and  _217
REMARK   97  A    between atoms: _217  and  _218
REMARK   98  A    between atoms: _221  and  _223
REMARK   99  A    between atoms: _223  and  _224
REMARK  100  A    between atoms: _223  and  _226
REMARK  101  A    between atoms: _226  and  _227
REMARK  102  A    between atoms: _230  and  _232
REMARK  103  A    between atoms: _232  and  _233
REMARK  104  A    between atoms: _232  and  _235
REMARK  105  A    between atoms: _235  and  _236
REMARK  106  A    between atoms: _241  and  _243
REMARK  107  A    between atoms: _243  and  _244
REMARK  108  A    between atoms: _243  and  _246
REMARK  109  A    between atoms: _246  and  _247
REMARK  110  A    between atoms: _250  and  _252
REMARK  111  A    between atoms: _252  and  _253
REMARK  112  A    between atoms: _252  and  _255
REMARK  113  A    between atoms: _255  and  _256
REMARK  114  A    between atoms: _258  and  _260
REMARK  115  A    between atoms: _260  and  _261
REMARK  116  A    between atoms: _260  and  _263
REMARK  117  A    between atoms: _263  and  _264
REMARK  118  A    between atoms: _268  and  _269
REMARK  119  A    between atoms: _274  and  _276
REMARK  120  A    between atoms: _276  and  _277
REMARK  121  A    between atoms: _276  and  _279
REMARK  122  A    between atoms: _279  and  _280
REMARK  123  A    between atoms: _287  and  _288
REMARK  124  A    between atoms: _293  and  _295
REMARK  125  A    between atoms: _295  and  _296
REMARK  126  A    between atoms: _299  and  _301
REMARK  127  A    between atoms: _301  and  _302
REMARK  128  A    between atoms: _301  and  _304
REMARK  129  A    between atoms: _304  and  _305
REMARK  130  A    between atoms: _315  and  _317
REMARK  131  A    between atoms: _317  and  _318
REMARK  132  A    between atoms: _317  and  _320
REMARK  133  A    between atoms: _320  and  _321
REMARK  134  A    between atoms: _325  and  ZN_335
REMARK  135  A    between atoms: _326  and  _328
REMARK  136  A    between atoms: _328  and  _329
REMARK  137  A    between atoms: _328  and  _331
REMARK  138  A    between atoms: _331  and  _332
REMARK                            x       y       z     vdW  Elec       q    Type
REMARK                         _______ _______ _______ _____ _____    ______ ____
ROOT
ATOM      1  O   HOH     1       6.063  55.198  25.054  0.00  0.00    +0.000 OA
ENDROOT
TORSDOF 0
REMARK  Name = ../refined-set-2016/3pb7/3pb7_pocket.pdb
REMARK  138 active torsions:
REMARK  status: ('A' for Active; 'I' for Inactive)
REMARK    1  A    between atoms: _1  and  _3
REMARK    2  A    between atoms: _3  and  _4
REMARK    3  A    between atoms: _3  and  _6
REMARK    4  A    between atoms: _6  and  _7
REMARK    5  A    between atoms: _12  and  _14
REMARK    6  A    between atoms: _14  and  _15
REMARK    7  A    between atoms: _14  and  _17
REMARK    8  A    between atoms: _17  and  _18
REMARK    9  A    between atoms: _18  and  _19
REMARK   10  A    between atoms: _19  and  _20
REMARK   11  A    between atoms: _20  and  _21
REMARK   12  A    between atoms: _25  and  _27
REMARK   13  A    between atoms: _27  and  _28
REMARK   14  A    between atoms: _27  and  _30
REMARK   15  A    between atoms: _30  and  _31
REMARK   16  A    between atoms: _37  and  _39
REMARK   17  A    between atoms: _39  and  _40
REMARK   18  A    between atoms: _39  and  _42
REMARK   19  A    between atoms: _42  and  _43
REMARK   20  A    between atoms: _46  and  _48
REMARK   21  A    between atoms: _48  and  _49
REMARK   22  A    between atoms: _48  and  _51
REMARK   23  A    between atoms: _51  and  _52
REMARK   24  A    between atoms: _52  and  _54
REMARK   25  A    between atoms: _54  and  ZN_335
REMARK   26  A    between atoms: _55  and  _57
REMARK   27  A    between atoms: _57  and  _58
REMARK   28  A    between atoms: _57  and  _60
REMARK   29  A    between atoms: _60  and  _61
REMARK   30  A    between atoms: _63  and  _65
REMARK   31  A    between atoms: _65  and  _66
REMARK   32  A    between atoms: _65  and  _68
REMARK   33  A    between atoms: _68  and  _69
REMARK   34  A    between atoms: _69  and  _70
REMARK   35  A    between atoms: _73  and  _75
REMARK   36  A    between atoms: _75  and  _76
REMARK   37  A    between atoms: _75  and  _78
REMARK   38  A    between atoms: _78  and  _79
REMARK   39  A    between atoms: _79  and  _80
REMARK   40  A    between atoms: _80  and  _82
REMARK   41  A    between atoms: _82  and  ZN_335
REMARK   42  A    between atoms: _83  and  _85
REMARK   43  A    between atoms: _85  and  _86
REMARK   44  A    between atoms: _89  and  _91
REMARK   45  A    between atoms: _91  and  _92
REMARK   46  A    between atoms: _91  and  _94
REMARK   47  A    between atoms: _94  and  _95
REMARK   48  A    between atoms: _105  and  _107
REMARK   49  A    between atoms: _107  and  _108
REMARK   50  A    between atoms: _107  and  _110
REMARK   51  A    between atoms: _110  and  _111
REMARK   52  A    between atoms: _113  and  _115
REMARK   53  A    between atoms: _115  and  _116
REMARK   54  A    between atoms: _115  and  _118
REMARK   55  A    between atoms: _118  and  _119
REMARK   56  A    between atoms: _122  and  _124
REMARK   57  A    between atoms: _124  and  _125
REMARK   58  A    between atoms: _124  and  _127
REMARK   59  A    between atoms: _127  and  _128
REMARK   60  A    between atoms: _131  and  _133
REMARK   61  A    between atoms: _133  and  _134
REMARK   62  A    between atoms: _133  and  _136
REMARK   63  A    between atoms: _136  and  _137
REMARK   64  A    between atoms: _140  and  _142
REMARK   65  A    between atoms: _142  and  _143
REMARK   66  A    between atoms: _142  and  _145
REMARK   67  A    between atoms: _145  and  _146
REMARK   68  A    between atoms: _149  and  _151
REMARK   69  A    between atoms: _151  and  _152
REMARK   70  A    between atoms: _151  and  _154
REMARK   71  A    between atoms: _154  and  _155
REMARK   72  A    between atoms: _158  and  _160
REMARK   73  A    between atoms: _160  and  _161
REMARK   74  A    between atoms: _160  and  _163
REMARK   75  A    between atoms: _163  and  _164
REMARK   76  A    between atoms: _169  and  _171
REMARK   77  A    between atoms: _171  and  _172
REMARK   78  A    between atoms: _171  and  _174
REMARK   79  A    between atoms: _174  and  _175
REMARK   80  A    between atoms: _181  and  _183
REMARK   81  A    between atoms: _183  and  _184
REMARK   82  A    between atoms: _186  and  _188
REMARK   83  A    between atoms: _188  and  _189
REMARK   84  A    between atoms: _188  and  _191
REMARK   85  A    between atoms: _191  and  _192
REMARK   86  A    between atoms: _194  and  _196
REMARK   87  A    between atoms: _196  and  _197
REMARK   88  A    between atoms: _196  and  _199
REMARK   89  A    between atoms: _202  and  _204
REMARK   90  A    between atoms: _204  and  _205
REMARK   91  A    between atoms: _204  and  _207
REMARK   92  A    between atoms: _207  and  _208
REMARK   93  A    between atoms: _208  and  _209
REMARK   94  A    between atoms: _212  and  _214
REMARK   95  A    between atoms: _214  and  _215
REMARK   96  A    between atoms: _214  and  _217
REMARK   97  A    between atoms: _217  and  _218
REMARK   98  A    between atoms: _221  and  _223
REMARK   99  A    between atoms: _223  and  _224
REMARK  100  A    between atoms: _223  and  _226
REMARK  101  A    between atoms: _226  and  _227
REMARK  102  A    between atoms: _230  and  _232
REMARK  103  A    between atoms: _232  and  _233
REMARK  104  A    between atoms: _232  and  _235
REMARK  105  A    between atoms: _235  and  _236
REMARK  106  A    between atoms: _241  and  _243
REMARK  107  A    between atoms: _243  and  _244
REMARK  108  A    between atoms: _243  and  _246
REMARK  109  A    between atoms: _246  and  _247
REMARK  110  A    between atoms: _250  and  _252
REMARK  111  A    between atoms: _252  and  _253
REMARK  112  A    between atoms: _252  and  _255
REMARK  113  A    between atoms: _255  and  _256
REMARK  114  A    between atoms: _258  and  _260
REMARK  115  A    between atoms: _260  and  _261
REMARK  116  A    between atoms: _260  and  _263
REMARK  117  A    between atoms: _263  and  _264
REMARK  118  A    between atoms: _268  and  _269
REMARK  119  A    between atoms: _274  and  _276
REMARK  120  A    between atoms: _276  and  _277
REMARK  121  A    between atoms: _276  and  _279
REMARK  122  A    between atoms: _279  and  _280
REMARK  123  A    between atoms: _287  and  _288
REMARK  124  A    between atoms: _293  and  _295
REMARK  125  A    between atoms: _295  and  _296
REMARK  126  A    between atoms: _299  and  _301
REMARK  127  A    between atoms: _301  and  _302
REMARK  128  A    between atoms: _301  and  _304
REMARK  129  A    between atoms: _304  and  _305
REMARK  130  A    between atoms: _315  and  _317
REMARK  131  A    between atoms: _317  and  _318
REMARK  132  A    between atoms: _317  and  _320
REMARK  133  A    between atoms: _320  and  _321
REMARK  134  A    between atoms: _325  and  ZN_335
REMARK  135  A    between atoms: _326  and  _328
REMARK  136  A    between atoms: _328  and  _329
REMARK  137  A    between atoms: _328  and  _331
REMARK  138  A    between atoms: _331  and  _332
REMARK                            x       y       z     vdW  Elec       q    Type
REMARK                         _______ _______ _______ _____ _____    ______ ____
ROOT
ATOM      1  O   HOH     1       8.944  47.519  13.906  0.00  0.00    +0.000 OA
ENDROOT
TORSDOF 0
REMARK  Name = ../refined-set-2016/3pb7/3pb7_pocket.pdb
REMARK  138 active torsions:
REMARK  status: ('A' for Active; 'I' for Inactive)
REMARK    1  A    between atoms: _1  and  _3
REMARK    2  A    between atoms: _3  and  _4
REMARK    3  A    between atoms: _3  and  _6
REMARK    4  A    between atoms: _6  and  _7
REMARK    5  A    between atoms: _12  and  _14
REMARK    6  A    between atoms: _14  and  _15
REMARK    7  A    between atoms: _14  and  _17
REMARK    8  A    between atoms: _17  and  _18
REMARK    9  A    between atoms: _18  and  _19
REMARK   10  A    between atoms: _19  and  _20
REMARK   11  A    between atoms: _20  and  _21
REMARK   12  A    between atoms: _25  and  _27
REMARK   13  A    between atoms: _27  and  _28
REMARK   14  A    between atoms: _27  and  _30
REMARK   15  A    between atoms: _30  and  _31
REMARK   16  A    between atoms: _37  and  _39
REMARK   17  A    between atoms: _39  and  _40
REMARK   18  A    between atoms: _39  and  _42
REMARK   19  A    between atoms: _42  and  _43
REMARK   20  A    between atoms: _46  and  _48
REMARK   21  A    between atoms: _48  and  _49
REMARK   22  A    between atoms: _48  and  _51
REMARK   23  A    between atoms: _51  and  _52
REMARK   24  A    between atoms: _52  and  _54
REMARK   25  A    between atoms: _54  and  ZN_335
REMARK   26  A    between atoms: _55  and  _57
REMARK   27  A    between atoms: _57  and  _58
REMARK   28  A    between atoms: _57  and  _60
REMARK   29  A    between atoms: _60  and  _61
REMARK   30  A    between atoms: _63  and  _65
REMARK   31  A    between atoms: _65  and  _66
REMARK   32  A    between atoms: _65  and  _68
REMARK   33  A    between atoms: _68  and  _69
REMARK   34  A    between atoms: _69  and  _70
REMARK   35  A    between atoms: _73  and  _75
REMARK   36  A    between atoms: _75  and  _76
REMARK   37  A    between atoms: _75  and  _78
REMARK   38  A    between atoms: _78  and  _79
REMARK   39  A    between atoms: _79  and  _80
REMARK   40  A    between atoms: _80  and  _82
REMARK   41  A    between atoms: _82  and  ZN_335
REMARK   42  A    between atoms: _83  and  _85
REMARK   43  A    between atoms: _85  and  _86
REMARK   44  A    between atoms: _89  and  _91
REMARK   45  A    between atoms: _91  and  _92
REMARK   46  A    between atoms: _91  and  _94
REMARK   47  A    between atoms: _94  and  _95
REMARK   48  A    between atoms: _105  and  _107
REMARK   49  A    between atoms: _107  and  _108
REMARK   50  A    between atoms: _107  and  _110
REMARK   51  A    between atoms: _110  and  _111
REMARK   52  A    between atoms: _113  and  _115
REMARK   53  A    between atoms: _115  and  _116
REMARK   54  A    between atoms: _115  and  _118
REMARK   55  A    between atoms: _118  and  _119
REMARK   56  A    between atoms: _122  and  _124
REMARK   57  A    between atoms: _124  and  _125
REMARK   58  A    between atoms: _124  and  _127
REMARK   59  A    between atoms: _127  and  _128
REMARK   60  A    between atoms: _131  and  _133
REMARK   61  A    between atoms: _133  and  _134
REMARK   62  A    between atoms: _133  and  _136
REMARK   63  A    between atoms: _136  and  _137
REMARK   64  A    between atoms: _140  and  _142
REMARK   65  A    between atoms: _142  and  _143
REMARK   66  A    between atoms: _142  and  _145
REMARK   67  A    between atoms: _145  and  _146
REMARK   68  A    between atoms: _149  and  _151
REMARK   69  A    between atoms: _151  and  _152
REMARK   70  A    between atoms: _151  and  _154
REMARK   71  A    between atoms: _154  and  _155
REMARK   72  A    between atoms: _158  and  _160
REMARK   73  A    between atoms: _160  and  _161
REMARK   74  A    between atoms: _160  and  _163
REMARK   75  A    between atoms: _163  and  _164
REMARK   76  A    between atoms: _169  and  _171
REMARK   77  A    between atoms: _171  and  _172
REMARK   78  A    between atoms: _171  and  _174
REMARK   79  A    between atoms: _174  and  _175
REMARK   80  A    between atoms: _181  and  _183
REMARK   81  A    between atoms: _183  and  _184
REMARK   82  A    between atoms: _186  and  _188
REMARK   83  A    between atoms: _188  and  _189
REMARK   84  A    between atoms: _188  and  _191
REMARK   85  A    between atoms: _191  and  _192
REMARK   86  A    between atoms: _194  and  _196
REMARK   87  A    between atoms: _196  and  _197
REMARK   88  A    between atoms: _196  and  _199
REMARK   89  A    between atoms: _202  and  _204
REMARK   90  A    between atoms: _204  and  _205
REMARK   91  A    between atoms: _204  and  _207
REMARK   92  A    between atoms: _207  and  _208
REMARK   93  A    between atoms: _208  and  _209
REMARK   94  A    between atoms: _212  and  _214
REMARK   95  A    between atoms: _214  and  _215
REMARK   96  A    between atoms: _214  and  _217
REMARK   97  A    between atoms: _217  and  _218
REMARK   98  A    between atoms: _221  and  _223
REMARK   99  A    between atoms: _223  and  _224
REMARK  100  A    between atoms: _223  and  _226
REMARK  101  A    between atoms: _226  and  _227
REMARK  102  A    between atoms: _230  and  _232
REMARK  103  A    between atoms: _232  and  _233
REMARK  104  A    between atoms: _232  and  _235
REMARK  105  A    between atoms: _235  and  _236
REMARK  106  A    between atoms: _241  and  _243
REMARK  107  A    between atoms: _243  and  _244
REMARK  108  A    between atoms: _243  and  _246
REMARK  109  A    between atoms: _246  and  _247
REMARK  110  A    between atoms: _250  and  _252
REMARK  111  A    between atoms: _252  and  _253
REMARK  112  A    between atoms: _252  and  _255
REMARK  113  A    between atoms: _255  and  _256
REMARK  114  A    between atoms: _258  and  _260
REMARK  115  A    between atoms: _260  and  _261
REMARK  116  A    between atoms: _260  and  _263
REMARK  117  A    between atoms: _263  and  _264
REMARK  118  A    between atoms: _268  and  _269
REMARK  119  A    between atoms: _274  and  _276
REMARK  120  A    between atoms: _276  and  _277
REMARK  121  A    between atoms: _276  and  _279
REMARK  122  A    between atoms: _279  and  _280
REMARK  123  A    between atoms: _287  and  _288
REMARK  124  A    between atoms: _293  and  _295
REMARK  125  A    between atoms: _295  and  _296
REMARK  126  A    between atoms: _299  and  _301
REMARK  127  A    between atoms: _301  and  _302
REMARK  128  A    between atoms: _301  and  _304
REMARK  129  A    between atoms: _304  and  _305
REMARK  130  A    between atoms: _315  and  _317
REMARK  131  A    between atoms: _317  and  _318
REMARK  132  A    between atoms: _317  and  _320
REMARK  133  A    between atoms: _320  and  _321
REMARK  134  A    between atoms: _325  and  ZN_335
REMARK  135  A    between atoms: _326  and  _328
REMARK  136  A    between atoms: _328  and  _329
REMARK  137  A    between atoms: _328  and  _331
REMARK  138  A    between atoms: _331  and  _332
REMARK                            x       y       z     vdW  Elec       q    Type
REMARK                         _______ _______ _______ _____ _____    ______ ____
ROOT
ATOM      1  O   HOH     1      -1.254  52.390  27.077  0.00  0.00    +0.000 OA
ENDROOT
TORSDOF 0
REMARK  Name = ../refined-set-2016/3pb7/3pb7_pocket.pdb
REMARK  138 active torsions:
REMARK  status: ('A' for Active; 'I' for Inactive)
REMARK    1  A    between atoms: _1  and  _3
REMARK    2  A    between atoms: _3  and  _4
REMARK    3  A    between atoms: _3  and  _6
REMARK    4  A    between atoms: _6  and  _7
REMARK    5  A    between atoms: _12  and  _14
REMARK    6  A    between atoms: _14  and  _15
REMARK    7  A    between atoms: _14  and  _17
REMARK    8  A    between atoms: _17  and  _18
REMARK    9  A    between atoms: _18  and  _19
REMARK   10  A    between atoms: _19  and  _20
REMARK   11  A    between atoms: _20  and  _21
REMARK   12  A    between atoms: _25  and  _27
REMARK   13  A    between atoms: _27  and  _28
REMARK   14  A    between atoms: _27  and  _30
REMARK   15  A    between atoms: _30  and  _31
REMARK   16  A    between atoms: _37  and  _39
REMARK   17  A    between atoms: _39  and  _40
REMARK   18  A    between atoms: _39  and  _42
REMARK   19  A    between atoms: _42  and  _43
REMARK   20  A    between atoms: _46  and  _48
REMARK   21  A    between atoms: _48  and  _49
REMARK   22  A    between atoms: _48  and  _51
REMARK   23  A    between atoms: _51  and  _52
REMARK   24  A    between atoms: _52  and  _54
REMARK   25  A    between atoms: _54  and  ZN_335
REMARK   26  A    between atoms: _55  and  _57
REMARK   27  A    between atoms: _57  and  _58
REMARK   28  A    between atoms: _57  and  _60
REMARK   29  A    between atoms: _60  and  _61
REMARK   30  A    between atoms: _63  and  _65
REMARK   31  A    between atoms: _65  and  _66
REMARK   32  A    between atoms: _65  and  _68
REMARK   33  A    between atoms: _68  and  _69
REMARK   34  A    between atoms: _69  and  _70
REMARK   35  A    between atoms: _73  and  _75
REMARK   36  A    between atoms: _75  and  _76
REMARK   37  A    between atoms: _75  and  _78
REMARK   38  A    between atoms: _78  and  _79
REMARK   39  A    between atoms: _79  and  _80
REMARK   40  A    between atoms: _80  and  _82
REMARK   41  A    between atoms: _82  and  ZN_335
REMARK   42  A    between atoms: _83  and  _85
REMARK   43  A    between atoms: _85  and  _86
REMARK   44  A    between atoms: _89  and  _91
REMARK   45  A    between atoms: _91  and  _92
REMARK   46  A    between atoms: _91  and  _94
REMARK   47  A    between atoms: _94  and  _95
REMARK   48  A    between atoms: _105  and  _107
REMARK   49  A    between atoms: _107  and  _108
REMARK   50  A    between atoms: _107  and  _110
REMARK   51  A    between atoms: _110  and  _111
REMARK   52  A    between atoms: _113  and  _115
REMARK   53  A    between atoms: _115  and  _116
REMARK   54  A    between atoms: _115  and  _118
REMARK   55  A    between atoms: _118  and  _119
REMARK   56  A    between atoms: _122  and  _124
REMARK   57  A    between atoms: _124  and  _125
REMARK   58  A    between atoms: _124  and  _127
REMARK   59  A    between atoms: _127  and  _128
REMARK   60  A    between atoms: _131  and  _133
REMARK   61  A    between atoms: _133  and  _134
REMARK   62  A    between atoms: _133  and  _136
REMARK   63  A    between atoms: _136  and  _137
REMARK   64  A    between atoms: _140  and  _142
REMARK   65  A    between atoms: _142  and  _143
REMARK   66  A    between atoms: _142  and  _145
REMARK   67  A    between atoms: _145  and  _146
REMARK   68  A    between atoms: _149  and  _151
REMARK   69  A    between atoms: _151  and  _152
REMARK   70  A    between atoms: _151  and  _154
REMARK   71  A    between atoms: _154  and  _155
REMARK   72  A    between atoms: _158  and  _160
REMARK   73  A    between atoms: _160  and  _161
REMARK   74  A    between atoms: _160  and  _163
REMARK   75  A    between atoms: _163  and  _164
REMARK   76  A    between atoms: _169  and  _171
REMARK   77  A    between atoms: _171  and  _172
REMARK   78  A    between atoms: _171  and  _174
REMARK   79  A    between atoms: _174  and  _175
REMARK   80  A    between atoms: _181  and  _183
REMARK   81  A    between atoms: _183  and  _184
REMARK   82  A    between atoms: _186  and  _188
REMARK   83  A    between atoms: _188  and  _189
REMARK   84  A    between atoms: _188  and  _191
REMARK   85  A    between atoms: _191  and  _192
REMARK   86  A    between atoms: _194  and  _196
REMARK   87  A    between atoms: _196  and  _197
REMARK   88  A    between atoms: _196  and  _199
REMARK   89  A    between atoms: _202  and  _204
REMARK   90  A    between atoms: _204  and  _205
REMARK   91  A    between atoms: _204  and  _207
REMARK   92  A    between atoms: _207  and  _208
REMARK   93  A    between atoms: _208  and  _209
REMARK   94  A    between atoms: _212  and  _214
REMARK   95  A    between atoms: _214  and  _215
REMARK   96  A    between atoms: _214  and  _217
REMARK   97  A    between atoms: _217  and  _218
REMARK   98  A    between atoms: _221  and  _223
REMARK   99  A    between atoms: _223  and  _224
REMARK  100  A    between atoms: _223  and  _226
REMARK  101  A    between atoms: _226  and  _227
REMARK  102  A    between atoms: _230  and  _232
REMARK  103  A    between atoms: _232  and  _233
REMARK  104  A    between atoms: _232  and  _235
REMARK  105  A    between atoms: _235  and  _236
REMARK  106  A    between atoms: _241  and  _243
REMARK  107  A    between atoms: _243  and  _244
REMARK  108  A    between atoms: _243  and  _246
REMARK  109  A    between atoms: _246  and  _247
REMARK  110  A    between atoms: _250  and  _252
REMARK  111  A    between atoms: _252  and  _253
REMARK  112  A    between atoms: _252  and  _255
REMARK  113  A    between atoms: _255  and  _256
REMARK  114  A    between atoms: _258  and  _260
REMARK  115  A    between atoms: _260  and  _261
REMARK  116  A    between atoms: _260  and  _263
REMARK  117  A    between atoms: _263  and  _264
REMARK  118  A    between atoms: _268  and  _269
REMARK  119  A    between atoms: _274  and  _276
REMARK  120  A    between atoms: _276  and  _277
REMARK  121  A    between atoms: _276  and  _279
REMARK  122  A    between atoms: _279  and  _280
REMARK  123  A    between atoms: _287  and  _288
REMARK  124  A    between atoms: _293  and  _295
REMARK  125  A    between atoms: _295  and  _296
REMARK  126  A    between atoms: _299  and  _301
REMARK  127  A    between atoms: _301  and  _302
REMARK  128  A    between atoms: _301  and  _304
REMARK  129  A    between atoms: _304  and  _305
REMARK  130  A    between atoms: _315  and  _317
REMARK  131  A    between atoms: _317  and  _318
REMARK  132  A    between atoms: _317  and  _320
REMARK  133  A    between atoms: _320  and  _321
REMARK  134  A    between atoms: _325  and  ZN_335
REMARK  135  A    between atoms: _326  and  _328
REMARK  136  A    between atoms: _328  and  _329
REMARK  137  A    between atoms: _328  and  _331
REMARK  138  A    between atoms: _331  and  _332
REMARK                            x       y       z     vdW  Elec       q    Type
REMARK                         _______ _______ _______ _____ _____    ______ ____
ROOT
ATOM      1  O   HOH     1       4.842  47.682  11.947  0.00  0.00    +0.000 OA
ENDROOT
TORSDOF 0
REMARK  Name = ../refined-set-2016/3pb7/3pb7_pocket.pdb
REMARK  138 active torsions:
REMARK  status: ('A' for Active; 'I' for Inactive)
REMARK    1  A    between atoms: _1  and  _3
REMARK    2  A    between atoms: _3  and  _4
REMARK    3  A    between atoms: _3  and  _6
REMARK    4  A    between atoms: _6  and  _7
REMARK    5  A    between atoms: _12  and  _14
REMARK    6  A    between atoms: _14  and  _15
REMARK    7  A    between atoms: _14  and  _17
REMARK    8  A    between atoms: _17  and  _18
REMARK    9  A    between atoms: _18  and  _19
REMARK   10  A    between atoms: _19  and  _20
REMARK   11  A    between atoms: _20  and  _21
REMARK   12  A    between atoms: _25  and  _27
REMARK   13  A    between atoms: _27  and  _28
REMARK   14  A    between atoms: _27  and  _30
REMARK   15  A    between atoms: _30  and  _31
REMARK   16  A    between atoms: _37  and  _39
REMARK   17  A    between atoms: _39  and  _40
REMARK   18  A    between atoms: _39  and  _42
REMARK   19  A    between atoms: _42  and  _43
REMARK   20  A    between atoms: _46  and  _48
REMARK   21  A    between atoms: _48  and  _49
REMARK   22  A    between atoms: _48  and  _51
REMARK   23  A    between atoms: _51  and  _52
REMARK   24  A    between atoms: _52  and  _54
REMARK   25  A    between atoms: _54  and  ZN_335
REMARK   26  A    between atoms: _55  and  _57
REMARK   27  A    between atoms: _57  and  _58
REMARK   28  A    between atoms: _57  and  _60
REMARK   29  A    between atoms: _60  and  _61
REMARK   30  A    between atoms: _63  and  _65
REMARK   31  A    between atoms: _65  and  _66
REMARK   32  A    between atoms: _65  and  _68
REMARK   33  A    between atoms: _68  and  _69
REMARK   34  A    between atoms: _69  and  _70
REMARK   35  A    between atoms: _73  and  _75
REMARK   36  A    between atoms: _75  and  _76
REMARK   37  A    between atoms: _75  and  _78
REMARK   38  A    between atoms: _78  and  _79
REMARK   39  A    between atoms: _79  and  _80
REMARK   40  A    between atoms: _80  and  _82
REMARK   41  A    between atoms: _82  and  ZN_335
REMARK   42  A    between atoms: _83  and  _85
REMARK   43  A    between atoms: _85  and  _86
REMARK   44  A    between atoms: _89  and  _91
REMARK   45  A    between atoms: _91  and  _92
REMARK   46  A    between atoms: _91  and  _94
REMARK   47  A    between atoms: _94  and  _95
REMARK   48  A    between atoms: _105  and  _107
REMARK   49  A    between atoms: _107  and  _108
REMARK   50  A    between atoms: _107  and  _110
REMARK   51  A    between atoms: _110  and  _111
REMARK   52  A    between atoms: _113  and  _115
REMARK   53  A    between atoms: _115  and  _116
REMARK   54  A    between atoms: _115  and  _118
REMARK   55  A    between atoms: _118  and  _119
REMARK   56  A    between atoms: _122  and  _124
REMARK   57  A    between atoms: _124  and  _125
REMARK   58  A    between atoms: _124  and  _127
REMARK   59  A    between atoms: _127  and  _128
REMARK   60  A    between atoms: _131  and  _133
REMARK   61  A    between atoms: _133  and  _134
REMARK   62  A    between atoms: _133  and  _136
REMARK   63  A    between atoms: _136  and  _137
REMARK   64  A    between atoms: _140  and  _142
REMARK   65  A    between atoms: _142  and  _143
REMARK   66  A    between atoms: _142  and  _145
REMARK   67  A    between atoms: _145  and  _146
REMARK   68  A    between atoms: _149  and  _151
REMARK   69  A    between atoms: _151  and  _152
REMARK   70  A    between atoms: _151  and  _154
REMARK   71  A    between atoms: _154  and  _155
REMARK   72  A    between atoms: _158  and  _160
REMARK   73  A    between atoms: _160  and  _161
REMARK   74  A    between atoms: _160  and  _163
REMARK   75  A    between atoms: _163  and  _164
REMARK   76  A    between atoms: _169  and  _171
REMARK   77  A    between atoms: _171  and  _172
REMARK   78  A    between atoms: _171  and  _174
REMARK   79  A    between atoms: _174  and  _175
REMARK   80  A    between atoms: _181  and  _183
REMARK   81  A    between atoms: _183  and  _184
REMARK   82  A    between atoms: _186  and  _188
REMARK   83  A    between atoms: _188  and  _189
REMARK   84  A    between atoms: _188  and  _191
REMARK   85  A    between atoms: _191  and  _192
REMARK   86  A    between atoms: _194  and  _196
REMARK   87  A    between atoms: _196  and  _197
REMARK   88  A    between atoms: _196  and  _199
REMARK   89  A    between atoms: _202  and  _204
REMARK   90  A    between atoms: _204  and  _205
REMARK   91  A    between atoms: _204  and  _207
REMARK   92  A    between atoms: _207  and  _208
REMARK   93  A    between atoms: _208  and  _209
REMARK   94  A    between atoms: _212  and  _214
REMARK   95  A    between atoms: _214  and  _215
REMARK   96  A    between atoms: _214  and  _217
REMARK   97  A    between atoms: _217  and  _218
REMARK   98  A    between atoms: _221  and  _223
REMARK   99  A    between atoms: _223  and  _224
REMARK  100  A    between atoms: _223  and  _226
REMARK  101  A    between atoms: _226  and  _227
REMARK  102  A    between atoms: _230  and  _232
REMARK  103  A    between atoms: _232  and  _233
REMARK  104  A    between atoms: _232  and  _235
REMARK  105  A    between atoms: _235  and  _236
REMARK  106  A    between atoms: _241  and  _243
REMARK  107  A    between atoms: _243  and  _244
REMARK  108  A    between atoms: _243  and  _246
REMARK  109  A    between atoms: _246  and  _247
REMARK  110  A    between atoms: _250  and  _252
REMARK  111  A    between atoms: _252  and  _253
REMARK  112  A    between atoms: _252  and  _255
REMARK  113  A    between atoms: _255  and  _256
REMARK  114  A    between atoms: _258  and  _260
REMARK  115  A    between atoms: _260  and  _261
REMARK  116  A    between atoms: _260  and  _263
REMARK  117  A    between atoms: _263  and  _264
REMARK  118  A    between atoms: _268  and  _269
REMARK  119  A    between atoms: _274  and  _276
REMARK  120  A    between atoms: _276  and  _277
REMARK  121  A    between atoms: _276  and  _279
REMARK  122  A    between atoms: _279  and  _280
REMARK  123  A    between atoms: _287  and  _288
REMARK  124  A    between atoms: _293  and  _295
REMARK  125  A    between atoms: _295  and  _296
REMARK  126  A    between atoms: _299  and  _301
REMARK  127  A    between atoms: _301  and  _302
REMARK  128  A    between atoms: _301  and  _304
REMARK  129  A    between atoms: _304  and  _305
REMARK  130  A    between atoms: _315  and  _317
REMARK  131  A    between atoms: _317  and  _318
REMARK  132  A    between atoms: _317  and  _320
REMARK  133  A    between atoms: _320  and  _321
REMARK  134  A    between atoms: _325  and  ZN_335
REMARK  135  A    between atoms: _326  and  _328
REMARK  136  A    between atoms: _328  and  _329
REMARK  137  A    between atoms: _328  and  _331
REMARK  138  A    between atoms: _331  and  _332
REMARK                            x       y       z     vdW  Elec       q    Type
REMARK                         _______ _______ _______ _____ _____    ______ ____
ROOT
ATOM      1  O   HOH     1      10.967  45.391  14.323  0.00  0.00    +0.000 OA
ENDROOT
TORSDOF 0
REMARK  Name = ../refined-set-2016/3pb7/3pb7_pocket.pdb
REMARK  138 active torsions:
REMARK  status: ('A' for Active; 'I' for Inactive)
REMARK    1  A    between atoms: _1  and  _3
REMARK    2  A    between atoms: _3  and  _4
REMARK    3  A    between atoms: _3  and  _6
REMARK    4  A    between atoms: _6  and  _7
REMARK    5  A    between atoms: _12  and  _14
REMARK    6  A    between atoms: _14  and  _15
REMARK    7  A    between atoms: _14  and  _17
REMARK    8  A    between atoms: _17  and  _18
REMARK    9  A    between atoms: _18  and  _19
REMARK   10  A    between atoms: _19  and  _20
REMARK   11  A    between atoms: _20  and  _21
REMARK   12  A    between atoms: _25  and  _27
REMARK   13  A    between atoms: _27  and  _28
REMARK   14  A    between atoms: _27  and  _30
REMARK   15  A    between atoms: _30  and  _31
REMARK   16  A    between atoms: _37  and  _39
REMARK   17  A    between atoms: _39  and  _40
REMARK   18  A    between atoms: _39  and  _42
REMARK   19  A    between atoms: _42  and  _43
REMARK   20  A    between atoms: _46  and  _48
REMARK   21  A    between atoms: _48  and  _49
REMARK   22  A    between atoms: _48  and  _51
REMARK   23  A    between atoms: _51  and  _52
REMARK   24  A    between atoms: _52  and  _54
REMARK   25  A    between atoms: _54  and  ZN_335
REMARK   26  A    between atoms: _55  and  _57
REMARK   27  A    between atoms: _57  and  _58
REMARK   28  A    between atoms: _57  and  _60
REMARK   29  A    between atoms: _60  and  _61
REMARK   30  A    between atoms: _63  and  _65
REMARK   31  A    between atoms: _65  and  _66
REMARK   32  A    between atoms: _65  and  _68
REMARK   33  A    between atoms: _68  and  _69
REMARK   34  A    between atoms: _69  and  _70
REMARK   35  A    between atoms: _73  and  _75
REMARK   36  A    between atoms: _75  and  _76
REMARK   37  A    between atoms: _75  and  _78
REMARK   38  A    between atoms: _78  and  _79
REMARK   39  A    between atoms: _79  and  _80
REMARK   40  A    between atoms: _80  and  _82
REMARK   41  A    between atoms: _82  and  ZN_335
REMARK   42  A    between atoms: _83  and  _85
REMARK   43  A    between atoms: _85  and  _86
REMARK   44  A    between atoms: _89  and  _91
REMARK   45  A    between atoms: _91  and  _92
REMARK   46  A    between atoms: _91  and  _94
REMARK   47  A    between atoms: _94  and  _95
REMARK   48  A    between atoms: _105  and  _107
REMARK   49  A    between atoms: _107  and  _108
REMARK   50  A    between atoms: _107  and  _110
REMARK   51  A    between atoms: _110  and  _111
REMARK   52  A    between atoms: _113  and  _115
REMARK   53  A    between atoms: _115  and  _116
REMARK   54  A    between atoms: _115  and  _118
REMARK   55  A    between atoms: _118  and  _119
REMARK   56  A    between atoms: _122  and  _124
REMARK   57  A    between atoms: _124  and  _125
REMARK   58  A    between atoms: _124  and  _127
REMARK   59  A    between atoms: _127  and  _128
REMARK   60  A    between atoms: _131  and  _133
REMARK   61  A    between atoms: _133  and  _134
REMARK   62  A    between atoms: _133  and  _136
REMARK   63  A    between atoms: _136  and  _137
REMARK   64  A    between atoms: _140  and  _142
REMARK   65  A    between atoms: _142  and  _143
REMARK   66  A    between atoms: _142  and  _145
REMARK   67  A    between atoms: _145  and  _146
REMARK   68  A    between atoms: _149  and  _151
REMARK   69  A    between atoms: _151  and  _152
REMARK   70  A    between atoms: _151  and  _154
REMARK   71  A    between atoms: _154  and  _155
REMARK   72  A    between atoms: _158  and  _160
REMARK   73  A    between atoms: _160  and  _161
REMARK   74  A    between atoms: _160  and  _163
REMARK   75  A    between atoms: _163  and  _164
REMARK   76  A    between atoms: _169  and  _171
REMARK   77  A    between atoms: _171  and  _172
REMARK   78  A    between atoms: _171  and  _174
REMARK   79  A    between atoms: _174  and  _175
REMARK   80  A    between atoms: _181  and  _183
REMARK   81  A    between atoms: _183  and  _184
REMARK   82  A    between atoms: _186  and  _188
REMARK   83  A    between atoms: _188  and  _189
REMARK   84  A    between atoms: _188  and  _191
REMARK   85  A    between atoms: _191  and  _192
REMARK   86  A    between atoms: _194  and  _196
REMARK   87  A    between atoms: _196  and  _197
REMARK   88  A    between atoms: _196  and  _199
REMARK   89  A    between atoms: _202  and  _204
REMARK   90  A    between atoms: _204  and  _205
REMARK   91  A    between atoms: _204  and  _207
REMARK   92  A    between atoms: _207  and  _208
REMARK   93  A    between atoms: _208  and  _209
REMARK   94  A    between atoms: _212  and  _214
REMARK   95  A    between atoms: _214  and  _215
REMARK   96  A    between atoms: _214  and  _217
REMARK   97  A    between atoms: _217  and  _218
REMARK   98  A    between atoms: _221  and  _223
REMARK   99  A    between atoms: _223  and  _224
REMARK  100  A    between atoms: _223  and  _226
REMARK  101  A    between atoms: _226  and  _227
REMARK  102  A    between atoms: _230  and  _232
REMARK  103  A    between atoms: _232  and  _233
REMARK  104  A    between atoms: _232  and  _235
REMARK  105  A    between atoms: _235  and  _236
REMARK  106  A    between atoms: _241  and  _243
REMARK  107  A    between atoms: _243  and  _244
REMARK  108  A    between atoms: _243  and  _246
REMARK  109  A    between atoms: _246  and  _247
REMARK  110  A    between atoms: _250  and  _252
REMARK  111  A    between atoms: _252  and  _253
REMARK  112  A    between atoms: _252  and  _255
REMARK  113  A    between atoms: _255  and  _256
REMARK  114  A    between atoms: _258  and  _260
REMARK  115  A    between atoms: _260  and  _261
REMARK  116  A    between atoms: _260  and  _263
REMARK  117  A    between atoms: _263  and  _264
REMARK  118  A    between atoms: _268  and  _269
REMARK  119  A    between atoms: _274  and  _276
REMARK  120  A    between atoms: _276  and  _277
REMARK  121  A    between atoms: _276  and  _279
REMARK  122  A    between atoms: _279  and  _280
REMARK  123  A    between atoms: _287  and  _288
REMARK  124  A    between atoms: _293  and  _295
REMARK  125  A    between atoms: _295  and  _296
REMARK  126  A    between atoms: _299  and  _301
REMARK  127  A    between atoms: _301  and  _302
REMARK  128  A    between atoms: _301  and  _304
REMARK  129  A    between atoms: _304  and  _305
REMARK  130  A    between atoms: _315  and  _317
REMARK  131  A    between atoms: _317  and  _318
REMARK  132  A    between atoms: _317  and  _320
REMARK  133  A    between atoms: _320  and  _321
REMARK  134  A    between atoms: _325  and  ZN_335
REMARK  135  A    between atoms: _326  and  _328
REMARK  136  A    between atoms: _328  and  _329
REMARK  137  A    between atoms: _328  and  _331
REMARK  138  A    between atoms: _331  and  _332
REMARK                            x       y       z     vdW  Elec       q    Type
REMARK                         _______ _______ _______ _____ _____    ______ ____
ROOT
ATOM      1  O   HOH     1       2.558  46.874  28.741  0.00  0.00    +0.000 OA
ENDROOT
TORSDOF 0
REMARK  Name = ../refined-set-2016/3pb7/3pb7_pocket.pdb
REMARK  138 active torsions:
REMARK  status: ('A' for Active; 'I' for Inactive)
REMARK    1  A    between atoms: _1  and  _3
REMARK    2  A    between atoms: _3  and  _4
REMARK    3  A    between atoms: _3  and  _6
REMARK    4  A    between atoms: _6  and  _7
REMARK    5  A    between atoms: _12  and  _14
REMARK    6  A    between atoms: _14  and  _15
REMARK    7  A    between atoms: _14  and  _17
REMARK    8  A    between atoms: _17  and  _18
REMARK    9  A    between atoms: _18  and  _19
REMARK   10  A    between atoms: _19  and  _20
REMARK   11  A    between atoms: _20  and  _21
REMARK   12  A    between atoms: _25  and  _27
REMARK   13  A    between atoms: _27  and  _28
REMARK   14  A    between atoms: _27  and  _30
REMARK   15  A    between atoms: _30  and  _31
REMARK   16  A    between atoms: _37  and  _39
REMARK   17  A    between atoms: _39  and  _40
REMARK   18  A    between atoms: _39  and  _42
REMARK   19  A    between atoms: _42  and  _43
REMARK   20  A    between atoms: _46  and  _48
REMARK   21  A    between atoms: _48  and  _49
REMARK   22  A    between atoms: _48  and  _51
REMARK   23  A    between atoms: _51  and  _52
REMARK   24  A    between atoms: _52  and  _54
REMARK   25  A    between atoms: _54  and  ZN_335
REMARK   26  A    between atoms: _55  and  _57
REMARK   27  A    between atoms: _57  and  _58
REMARK   28  A    between atoms: _57  and  _60
REMARK   29  A    between atoms: _60  and  _61
REMARK   30  A    between atoms: _63  and  _65
REMARK   31  A    between atoms: _65  and  _66
REMARK   32  A    between atoms: _65  and  _68
REMARK   33  A    between atoms: _68  and  _69
REMARK   34  A    between atoms: _69  and  _70
REMARK   35  A    between atoms: _73  and  _75
REMARK   36  A    between atoms: _75  and  _76
REMARK   37  A    between atoms: _75  and  _78
REMARK   38  A    between atoms: _78  and  _79
REMARK   39  A    between atoms: _79  and  _80
REMARK   40  A    between atoms: _80  and  _82
REMARK   41  A    between atoms: _82  and  ZN_335
REMARK   42  A    between atoms: _83  and  _85
REMARK   43  A    between atoms: _85  and  _86
REMARK   44  A    between atoms: _89  and  _91
REMARK   45  A    between atoms: _91  and  _92
REMARK   46  A    between atoms: _91  and  _94
REMARK   47  A    between atoms: _94  and  _95
REMARK   48  A    between atoms: _105  and  _107
REMARK   49  A    between atoms: _107  and  _108
REMARK   50  A    between atoms: _107  and  _110
REMARK   51  A    between atoms: _110  and  _111
REMARK   52  A    between atoms: _113  and  _115
REMARK   53  A    between atoms: _115  and  _116
REMARK   54  A    between atoms: _115  and  _118
REMARK   55  A    between atoms: _118  and  _119
REMARK   56  A    between atoms: _122  and  _124
REMARK   57  A    between atoms: _124  and  _125
REMARK   58  A    between atoms: _124  and  _127
REMARK   59  A    between atoms: _127  and  _128
REMARK   60  A    between atoms: _131  and  _133
REMARK   61  A    between atoms: _133  and  _134
REMARK   62  A    between atoms: _133  and  _136
REMARK   63  A    between atoms: _136  and  _137
REMARK   64  A    between atoms: _140  and  _142
REMARK   65  A    between atoms: _142  and  _143
REMARK   66  A    between atoms: _142  and  _145
REMARK   67  A    between atoms: _145  and  _146
REMARK   68  A    between atoms: _149  and  _151
REMARK   69  A    between atoms: _151  and  _152
REMARK   70  A    between atoms: _151  and  _154
REMARK   71  A    between atoms: _154  and  _155
REMARK   72  A    between atoms: _158  and  _160
REMARK   73  A    between atoms: _160  and  _161
REMARK   74  A    between atoms: _160  and  _163
REMARK   75  A    between atoms: _163  and  _164
REMARK   76  A    between atoms: _169  and  _171
REMARK   77  A    between atoms: _171  and  _172
REMARK   78  A    between atoms: _171  and  _174
REMARK   79  A    between atoms: _174  and  _175
REMARK   80  A    between atoms: _181  and  _183
REMARK   81  A    between atoms: _183  and  _184
REMARK   82  A    between atoms: _186  and  _188
REMARK   83  A    between atoms: _188  and  _189
REMARK   84  A    between atoms: _188  and  _191
REMARK   85  A    between atoms: _191  and  _192
REMARK   86  A    between atoms: _194  and  _196
REMARK   87  A    between atoms: _196  and  _197
REMARK   88  A    between atoms: _196  and  _199
REMARK   89  A    between atoms: _202  and  _204
REMARK   90  A    between atoms: _204  and  _205
REMARK   91  A    between atoms: _204  and  _207
REMARK   92  A    between atoms: _207  and  _208
REMARK   93  A    between atoms: _208  and  _209
REMARK   94  A    between atoms: _212  and  _214
REMARK   95  A    between atoms: _214  and  _215
REMARK   96  A    between atoms: _214  and  _217
REMARK   97  A    between atoms: _217  and  _218
REMARK   98  A    between atoms: _221  and  _223
REMARK   99  A    between atoms: _223  and  _224
REMARK  100  A    between atoms: _223  and  _226
REMARK  101  A    between atoms: _226  and  _227
REMARK  102  A    between atoms: _230  and  _232
REMARK  103  A    between atoms: _232  and  _233
REMARK  104  A    between atoms: _232  and  _235
REMARK  105  A    between atoms: _235  and  _236
REMARK  106  A    between atoms: _241  and  _243
REMARK  107  A    between atoms: _243  and  _244
REMARK  108  A    between atoms: _243  and  _246
REMARK  109  A    between atoms: _246  and  _247
REMARK  110  A    between atoms: _250  and  _252
REMARK  111  A    between atoms: _252  and  _253
REMARK  112  A    between atoms: _252  and  _255
REMARK  113  A    between atoms: _255  and  _256
REMARK  114  A    between atoms: _258  and  _260
REMARK  115  A    between atoms: _260  and  _261
REMARK  116  A    between atoms: _260  and  _263
REMARK  117  A    between atoms: _263  and  _264
REMARK  118  A    between atoms: _268  and  _269
REMARK  119  A    between atoms: _274  and  _276
REMARK  120  A    between atoms: _276  and  _277
REMARK  121  A    between atoms: _276  and  _279
REMARK  122  A    between atoms: _279  and  _280
REMARK  123  A    between atoms: _287  and  _288
REMARK  124  A    between atoms: _293  and  _295
REMARK  125  A    between atoms: _295  and  _296
REMARK  126  A    between atoms: _299  and  _301
REMARK  127  A    between atoms: _301  and  _302
REMARK  128  A    between atoms: _301  and  _304
REMARK  129  A    between atoms: _304  and  _305
REMARK  130  A    between atoms: _315  and  _317
REMARK  131  A    between atoms: _317  and  _318
REMARK  132  A    between atoms: _317  and  _320
REMARK  133  A    between atoms: _320  and  _321
REMARK  134  A    between atoms: _325  and  ZN_335
REMARK  135  A    between atoms: _326  and  _328
REMARK  136  A    between atoms: _328  and  _329
REMARK  137  A    between atoms: _328  and  _331
REMARK  138  A    between atoms: _331  and  _332
REMARK                            x       y       z     vdW  Elec       q    Type
REMARK                         _______ _______ _______ _____ _____    ______ ____
ROOT
ATOM      1  O   HOH     1       1.201  41.858  15.565  0.00  0.00    +0.000 OA
ENDROOT
TORSDOF 0
REMARK  Name = ../refined-set-2016/3pb7/3pb7_pocket.pdb
REMARK  138 active torsions:
REMARK  status: ('A' for Active; 'I' for Inactive)
REMARK    1  A    between atoms: _1  and  _3
REMARK    2  A    between atoms: _3  and  _4
REMARK    3  A    between atoms: _3  and  _6
REMARK    4  A    between atoms: _6  and  _7
REMARK    5  A    between atoms: _12  and  _14
REMARK    6  A    between atoms: _14  and  _15
REMARK    7  A    between atoms: _14  and  _17
REMARK    8  A    between atoms: _17  and  _18
REMARK    9  A    between atoms: _18  and  _19
REMARK   10  A    between atoms: _19  and  _20
REMARK   11  A    between atoms: _20  and  _21
REMARK   12  A    between atoms: _25  and  _27
REMARK   13  A    between atoms: _27  and  _28
REMARK   14  A    between atoms: _27  and  _30
REMARK   15  A    between atoms: _30  and  _31
REMARK   16  A    between atoms: _37  and  _39
REMARK   17  A    between atoms: _39  and  _40
REMARK   18  A    between atoms: _39  and  _42
REMARK   19  A    between atoms: _42  and  _43
REMARK   20  A    between atoms: _46  and  _48
REMARK   21  A    between atoms: _48  and  _49
REMARK   22  A    between atoms: _48  and  _51
REMARK   23  A    between atoms: _51  and  _52
REMARK   24  A    between atoms: _52  and  _54
REMARK   25  A    between atoms: _54  and  ZN_335
REMARK   26  A    between atoms: _55  and  _57
REMARK   27  A    between atoms: _57  and  _58
REMARK   28  A    between atoms: _57  and  _60
REMARK   29  A    between atoms: _60  and  _61
REMARK   30  A    between atoms: _63  and  _65
REMARK   31  A    between atoms: _65  and  _66
REMARK   32  A    between atoms: _65  and  _68
REMARK   33  A    between atoms: _68  and  _69
REMARK   34  A    between atoms: _69  and  _70
REMARK   35  A    between atoms: _73  and  _75
REMARK   36  A    between atoms: _75  and  _76
REMARK   37  A    between atoms: _75  and  _78
REMARK   38  A    between atoms: _78  and  _79
REMARK   39  A    between atoms: _79  and  _80
REMARK   40  A    between atoms: _80  and  _82
REMARK   41  A    between atoms: _82  and  ZN_335
REMARK   42  A    between atoms: _83  and  _85
REMARK   43  A    between atoms: _85  and  _86
REMARK   44  A    between atoms: _89  and  _91
REMARK   45  A    between atoms: _91  and  _92
REMARK   46  A    between atoms: _91  and  _94
REMARK   47  A    between atoms: _94  and  _95
REMARK   48  A    between atoms: _105  and  _107
REMARK   49  A    between atoms: _107  and  _108
REMARK   50  A    between atoms: _107  and  _110
REMARK   51  A    between atoms: _110  and  _111
REMARK   52  A    between atoms: _113  and  _115
REMARK   53  A    between atoms: _115  and  _116
REMARK   54  A    between atoms: _115  and  _118
REMARK   55  A    between atoms: _118  and  _119
REMARK   56  A    between atoms: _122  and  _124
REMARK   57  A    between atoms: _124  and  _125
REMARK   58  A    between atoms: _124  and  _127
REMARK   59  A    between atoms: _127  and  _128
REMARK   60  A    between atoms: _131  and  _133
REMARK   61  A    between atoms: _133  and  _134
REMARK   62  A    between atoms: _133  and  _136
REMARK   63  A    between atoms: _136  and  _137
REMARK   64  A    between atoms: _140  and  _142
REMARK   65  A    between atoms: _142  and  _143
REMARK   66  A    between atoms: _142  and  _145
REMARK   67  A    between atoms: _145  and  _146
REMARK   68  A    between atoms: _149  and  _151
REMARK   69  A    between atoms: _151  and  _152
REMARK   70  A    between atoms: _151  and  _154
REMARK   71  A    between atoms: _154  and  _155
REMARK   72  A    between atoms: _158  and  _160
REMARK   73  A    between atoms: _160  and  _161
REMARK   74  A    between atoms: _160  and  _163
REMARK   75  A    between atoms: _163  and  _164
REMARK   76  A    between atoms: _169  and  _171
REMARK   77  A    between atoms: _171  and  _172
REMARK   78  A    between atoms: _171  and  _174
REMARK   79  A    between atoms: _174  and  _175
REMARK   80  A    between atoms: _181  and  _183
REMARK   81  A    between atoms: _183  and  _184
REMARK   82  A    between atoms: _186  and  _188
REMARK   83  A    between atoms: _188  and  _189
REMARK   84  A    between atoms: _188  and  _191
REMARK   85  A    between atoms: _191  and  _192
REMARK   86  A    between atoms: _194  and  _196
REMARK   87  A    between atoms: _196  and  _197
REMARK   88  A    between atoms: _196  and  _199
REMARK   89  A    between atoms: _202  and  _204
REMARK   90  A    between atoms: _204  and  _205
REMARK   91  A    between atoms: _204  and  _207
REMARK   92  A    between atoms: _207  and  _208
REMARK   93  A    between atoms: _208  and  _209
REMARK   94  A    between atoms: _212  and  _214
REMARK   95  A    between atoms: _214  and  _215
REMARK   96  A    between atoms: _214  and  _217
REMARK   97  A    between atoms: _217  and  _218
REMARK   98  A    between atoms: _221  and  _223
REMARK   99  A    between atoms: _223  and  _224
REMARK  100  A    between atoms: _223  and  _226
REMARK  101  A    between atoms: _226  and  _227
REMARK  102  A    between atoms: _230  and  _232
REMARK  103  A    between atoms: _232  and  _233
REMARK  104  A    between atoms: _232  and  _235
REMARK  105  A    between atoms: _235  and  _236
REMARK  106  A    between atoms: _241  and  _243
REMARK  107  A    between atoms: _243  and  _244
REMARK  108  A    between atoms: _243  and  _246
REMARK  109  A    between atoms: _246  and  _247
REMARK  110  A    between atoms: _250  and  _252
REMARK  111  A    between atoms: _252  and  _253
REMARK  112  A    between atoms: _252  and  _255
REMARK  113  A    between atoms: _255  and  _256
REMARK  114  A    between atoms: _258  and  _260
REMARK  115  A    between atoms: _260  and  _261
REMARK  116  A    between atoms: _260  and  _263
REMARK  117  A    between atoms: _263  and  _264
REMARK  118  A    between atoms: _268  and  _269
REMARK  119  A    between atoms: _274  and  _276
REMARK  120  A    between atoms: _276  and  _277
REMARK  121  A    between atoms: _276  and  _279
REMARK  122  A    between atoms: _279  and  _280
REMARK  123  A    between atoms: _287  and  _288
REMARK  124  A    between atoms: _293  and  _295
REMARK  125  A    between atoms: _295  and  _296
REMARK  126  A    between atoms: _299  and  _301
REMARK  127  A    between atoms: _301  and  _302
REMARK  128  A    between atoms: _301  and  _304
REMARK  129  A    between atoms: _304  and  _305
REMARK  130  A    between atoms: _315  and  _317
REMARK  131  A    between atoms: _317  and  _318
REMARK  132  A    between atoms: _317  and  _320
REMARK  133  A    between atoms: _320  and  _321
REMARK  134  A    between atoms: _325  and  ZN_335
REMARK  135  A    between atoms: _326  and  _328
REMARK  136  A    between atoms: _328  and  _329
REMARK  137  A    between atoms: _328  and  _331
REMARK  138  A    between atoms: _331  and  _332
REMARK                            x       y       z     vdW  Elec       q    Type
REMARK                         _______ _______ _______ _____ _____    ______ ____
ROOT
ATOM      1  O   HOH     1      -1.565  49.834  24.736  0.00  0.00    +0.000 OA
ENDROOT
TORSDOF 0
REMARK  Name = ../refined-set-2016/3pb7/3pb7_pocket.pdb
REMARK  138 active torsions:
REMARK  status: ('A' for Active; 'I' for Inactive)
REMARK    1  A    between atoms: _1  and  _3
REMARK    2  A    between atoms: _3  and  _4
REMARK    3  A    between atoms: _3  and  _6
REMARK    4  A    between atoms: _6  and  _7
REMARK    5  A    between atoms: _12  and  _14
REMARK    6  A    between atoms: _14  and  _15
REMARK    7  A    between atoms: _14  and  _17
REMARK    8  A    between atoms: _17  and  _18
REMARK    9  A    between atoms: _18  and  _19
REMARK   10  A    between atoms: _19  and  _20
REMARK   11  A    between atoms: _20  and  _21
REMARK   12  A    between atoms: _25  and  _27
REMARK   13  A    between atoms: _27  and  _28
REMARK   14  A    between atoms: _27  and  _30
REMARK   15  A    between atoms: _30  and  _31
REMARK   16  A    between atoms: _37  and  _39
REMARK   17  A    between atoms: _39  and  _40
REMARK   18  A    between atoms: _39  and  _42
REMARK   19  A    between atoms: _42  and  _43
REMARK   20  A    between atoms: _46  and  _48
REMARK   21  A    between atoms: _48  and  _49
REMARK   22  A    between atoms: _48  and  _51
REMARK   23  A    between atoms: _51  and  _52
REMARK   24  A    between atoms: _52  and  _54
REMARK   25  A    between atoms: _54  and  ZN_335
REMARK   26  A    between atoms: _55  and  _57
REMARK   27  A    between atoms: _57  and  _58
REMARK   28  A    between atoms: _57  and  _60
REMARK   29  A    between atoms: _60  and  _61
REMARK   30  A    between atoms: _63  and  _65
REMARK   31  A    between atoms: _65  and  _66
REMARK   32  A    between atoms: _65  and  _68
REMARK   33  A    between atoms: _68  and  _69
REMARK   34  A    between atoms: _69  and  _70
REMARK   35  A    between atoms: _73  and  _75
REMARK   36  A    between atoms: _75  and  _76
REMARK   37  A    between atoms: _75  and  _78
REMARK   38  A    between atoms: _78  and  _79
REMARK   39  A    between atoms: _79  and  _80
REMARK   40  A    between atoms: _80  and  _82
REMARK   41  A    between atoms: _82  and  ZN_335
REMARK   42  A    between atoms: _83  and  _85
REMARK   43  A    between atoms: _85  and  _86
REMARK   44  A    between atoms: _89  and  _91
REMARK   45  A    between atoms: _91  and  _92
REMARK   46  A    between atoms: _91  and  _94
REMARK   47  A    between atoms: _94  and  _95
REMARK   48  A    between atoms: _105  and  _107
REMARK   49  A    between atoms: _107  and  _108
REMARK   50  A    between atoms: _107  and  _110
REMARK   51  A    between atoms: _110  and  _111
REMARK   52  A    between atoms: _113  and  _115
REMARK   53  A    between atoms: _115  and  _116
REMARK   54  A    between atoms: _115  and  _118
REMARK   55  A    between atoms: _118  and  _119
REMARK   56  A    between atoms: _122  and  _124
REMARK   57  A    between atoms: _124  and  _125
REMARK   58  A    between atoms: _124  and  _127
REMARK   59  A    between atoms: _127  and  _128
REMARK   60  A    between atoms: _131  and  _133
REMARK   61  A    between atoms: _133  and  _134
REMARK   62  A    between atoms: _133  and  _136
REMARK   63  A    between atoms: _136  and  _137
REMARK   64  A    between atoms: _140  and  _142
REMARK   65  A    between atoms: _142  and  _143
REMARK   66  A    between atoms: _142  and  _145
REMARK   67  A    between atoms: _145  and  _146
REMARK   68  A    between atoms: _149  and  _151
REMARK   69  A    between atoms: _151  and  _152
REMARK   70  A    between atoms: _151  and  _154
REMARK   71  A    between atoms: _154  and  _155
REMARK   72  A    between atoms: _158  and  _160
REMARK   73  A    between atoms: _160  and  _161
REMARK   74  A    between atoms: _160  and  _163
REMARK   75  A    between atoms: _163  and  _164
REMARK   76  A    between atoms: _169  and  _171
REMARK   77  A    between atoms: _171  and  _172
REMARK   78  A    between atoms: _171  and  _174
REMARK   79  A    between atoms: _174  and  _175
REMARK   80  A    between atoms: _181  and  _183
REMARK   81  A    between atoms: _183  and  _184
REMARK   82  A    between atoms: _186  and  _188
REMARK   83  A    between atoms: _188  and  _189
REMARK   84  A    between atoms: _188  and  _191
REMARK   85  A    between atoms: _191  and  _192
REMARK   86  A    between atoms: _194  and  _196
REMARK   87  A    between atoms: _196  and  _197
REMARK   88  A    between atoms: _196  and  _199
REMARK   89  A    between atoms: _202  and  _204
REMARK   90  A    between atoms: _204  and  _205
REMARK   91  A    between atoms: _204  and  _207
REMARK   92  A    between atoms: _207  and  _208
REMARK   93  A    between atoms: _208  and  _209
REMARK   94  A    between atoms: _212  and  _214
REMARK   95  A    between atoms: _214  and  _215
REMARK   96  A    between atoms: _214  and  _217
REMARK   97  A    between atoms: _217  and  _218
REMARK   98  A    between atoms: _221  and  _223
REMARK   99  A    between atoms: _223  and  _224
REMARK  100  A    between atoms: _223  and  _226
REMARK  101  A    between atoms: _226  and  _227
REMARK  102  A    between atoms: _230  and  _232
REMARK  103  A    between atoms: _232  and  _233
REMARK  104  A    between atoms: _232  and  _235
REMARK  105  A    between atoms: _235  and  _236
REMARK  106  A    between atoms: _241  and  _243
REMARK  107  A    between atoms: _243  and  _244
REMARK  108  A    between atoms: _243  and  _246
REMARK  109  A    between atoms: _246  and  _247
REMARK  110  A    between atoms: _250  and  _252
REMARK  111  A    between atoms: _252  and  _253
REMARK  112  A    between atoms: _252  and  _255
REMARK  113  A    between atoms: _255  and  _256
REMARK  114  A    between atoms: _258  and  _260
REMARK  115  A    between atoms: _260  and  _261
REMARK  116  A    between atoms: _260  and  _263
REMARK  117  A    between atoms: _263  and  _264
REMARK  118  A    between atoms: _268  and  _269
REMARK  119  A    between atoms: _274  and  _276
REMARK  120  A    between atoms: _276  and  _277
REMARK  121  A    between atoms: _276  and  _279
REMARK  122  A    between atoms: _279  and  _280
REMARK  123  A    between atoms: _287  and  _288
REMARK  124  A    between atoms: _293  and  _295
REMARK  125  A    between atoms: _295  and  _296
REMARK  126  A    between atoms: _299  and  _301
REMARK  127  A    between atoms: _301  and  _302
REMARK  128  A    between atoms: _301  and  _304
REMARK  129  A    between atoms: _304  and  _305
REMARK  130  A    between atoms: _315  and  _317
REMARK  131  A    between atoms: _317  and  _318
REMARK  132  A    between atoms: _317  and  _320
REMARK  133  A    between atoms: _320  and  _321
REMARK  134  A    between atoms: _325  and  ZN_335
REMARK  135  A    between atoms: _326  and  _328
REMARK  136  A    between atoms: _328  and  _329
REMARK  137  A    between atoms: _328  and  _331
REMARK  138  A    between atoms: _331  and  _332
REMARK                            x       y       z     vdW  Elec       q    Type
REMARK                         _______ _______ _______ _____ _____    ______ ____
ROOT
ATOM      1  O   HOH     1       3.020  56.257  25.537  0.00  0.00    +0.000 OA
ENDROOT
TORSDOF 0
REMARK  Name = ../refined-set-2016/3pb7/3pb7_pocket.pdb
REMARK  138 active torsions:
REMARK  status: ('A' for Active; 'I' for Inactive)
REMARK    1  A    between atoms: _1  and  _3
REMARK    2  A    between atoms: _3  and  _4
REMARK    3  A    between atoms: _3  and  _6
REMARK    4  A    between atoms: _6  and  _7
REMARK    5  A    between atoms: _12  and  _14
REMARK    6  A    between atoms: _14  and  _15
REMARK    7  A    between atoms: _14  and  _17
REMARK    8  A    between atoms: _17  and  _18
REMARK    9  A    between atoms: _18  and  _19
REMARK   10  A    between atoms: _19  and  _20
REMARK   11  A    between atoms: _20  and  _21
REMARK   12  A    between atoms: _25  and  _27
REMARK   13  A    between atoms: _27  and  _28
REMARK   14  A    between atoms: _27  and  _30
REMARK   15  A    between atoms: _30  and  _31
REMARK   16  A    between atoms: _37  and  _39
REMARK   17  A    between atoms: _39  and  _40
REMARK   18  A    between atoms: _39  and  _42
REMARK   19  A    between atoms: _42  and  _43
REMARK   20  A    between atoms: _46  and  _48
REMARK   21  A    between atoms: _48  and  _49
REMARK   22  A    between atoms: _48  and  _51
REMARK   23  A    between atoms: _51  and  _52
REMARK   24  A    between atoms: _52  and  _54
REMARK   25  A    between atoms: _54  and  ZN_335
REMARK   26  A    between atoms: _55  and  _57
REMARK   27  A    between atoms: _57  and  _58
REMARK   28  A    between atoms: _57  and  _60
REMARK   29  A    between atoms: _60  and  _61
REMARK   30  A    between atoms: _63  and  _65
REMARK   31  A    between atoms: _65  and  _66
REMARK   32  A    between atoms: _65  and  _68
REMARK   33  A    between atoms: _68  and  _69
REMARK   34  A    between atoms: _69  and  _70
REMARK   35  A    between atoms: _73  and  _75
REMARK   36  A    between atoms: _75  and  _76
REMARK   37  A    between atoms: _75  and  _78
REMARK   38  A    between atoms: _78  and  _79
REMARK   39  A    between atoms: _79  and  _80
REMARK   40  A    between atoms: _80  and  _82
REMARK   41  A    between atoms: _82  and  ZN_335
REMARK   42  A    between atoms: _83  and  _85
REMARK   43  A    between atoms: _85  and  _86
REMARK   44  A    between atoms: _89  and  _91
REMARK   45  A    between atoms: _91  and  _92
REMARK   46  A    between atoms: _91  and  _94
REMARK   47  A    between atoms: _94  and  _95
REMARK   48  A    between atoms: _105  and  _107
REMARK   49  A    between atoms: _107  and  _108
REMARK   50  A    between atoms: _107  and  _110
REMARK   51  A    between atoms: _110  and  _111
REMARK   52  A    between atoms: _113  and  _115
REMARK   53  A    between atoms: _115  and  _116
REMARK   54  A    between atoms: _115  and  _118
REMARK   55  A    between atoms: _118  and  _119
REMARK   56  A    between atoms: _122  and  _124
REMARK   57  A    between atoms: _124  and  _125
REMARK   58  A    between atoms: _124  and  _127
REMARK   59  A    between atoms: _127  and  _128
REMARK   60  A    between atoms: _131  and  _133
REMARK   61  A    between atoms: _133  and  _134
REMARK   62  A    between atoms: _133  and  _136
REMARK   63  A    between atoms: _136  and  _137
REMARK   64  A    between atoms: _140  and  _142
REMARK   65  A    between atoms: _142  and  _143
REMARK   66  A    between atoms: _142  and  _145
REMARK   67  A    between atoms: _145  and  _146
REMARK   68  A    between atoms: _149  and  _151
REMARK   69  A    between atoms: _151  and  _152
REMARK   70  A    between atoms: _151  and  _154
REMARK   71  A    between atoms: _154  and  _155
REMARK   72  A    between atoms: _158  and  _160
REMARK   73  A    between atoms: _160  and  _161
REMARK   74  A    between atoms: _160  and  _163
REMARK   75  A    between atoms: _163  and  _164
REMARK   76  A    between atoms: _169  and  _171
REMARK   77  A    between atoms: _171  and  _172
REMARK   78  A    between atoms: _171  and  _174
REMARK   79  A    between atoms: _174  and  _175
REMARK   80  A    between atoms: _181  and  _183
REMARK   81  A    between atoms: _183  and  _184
REMARK   82  A    between atoms: _186  and  _188
REMARK   83  A    between atoms: _188  and  _189
REMARK   84  A    between atoms: _188  and  _191
REMARK   85  A    between atoms: _191  and  _192
REMARK   86  A    between atoms: _194  and  _196
REMARK   87  A    between atoms: _196  and  _197
REMARK   88  A    between atoms: _196  and  _199
REMARK   89  A    between atoms: _202  and  _204
REMARK   90  A    between atoms: _204  and  _205
REMARK   91  A    between atoms: _204  and  _207
REMARK   92  A    between atoms: _207  and  _208
REMARK   93  A    between atoms: _208  and  _209
REMARK   94  A    between atoms: _212  and  _214
REMARK   95  A    between atoms: _214  and  _215
REMARK   96  A    between atoms: _214  and  _217
REMARK   97  A    between atoms: _217  and  _218
REMARK   98  A    between atoms: _221  and  _223
REMARK   99  A    between atoms: _223  and  _224
REMARK  100  A    between atoms: _223  and  _226
REMARK  101  A    between atoms: _226  and  _227
REMARK  102  A    between atoms: _230  and  _232
REMARK  103  A    between atoms: _232  and  _233
REMARK  104  A    between atoms: _232  and  _235
REMARK  105  A    between atoms: _235  and  _236
REMARK  106  A    between atoms: _241  and  _243
REMARK  107  A    between atoms: _243  and  _244
REMARK  108  A    between atoms: _243  and  _246
REMARK  109  A    between atoms: _246  and  _247
REMARK  110  A    between atoms: _250  and  _252
REMARK  111  A    between atoms: _252  and  _253
REMARK  112  A    between atoms: _252  and  _255
REMARK  113  A    between atoms: _255  and  _256
REMARK  114  A    between atoms: _258  and  _260
REMARK  115  A    between atoms: _260  and  _261
REMARK  116  A    between atoms: _260  and  _263
REMARK  117  A    between atoms: _263  and  _264
REMARK  118  A    between atoms: _268  and  _269
REMARK  119  A    between atoms: _274  and  _276
REMARK  120  A    between atoms: _276  and  _277
REMARK  121  A    between atoms: _276  and  _279
REMARK  122  A    between atoms: _279  and  _280
REMARK  123  A    between atoms: _287  and  _288
REMARK  124  A    between atoms: _293  and  _295
REMARK  125  A    between atoms: _295  and  _296
REMARK  126  A    between atoms: _299  and  _301
REMARK  127  A    between atoms: _301  and  _302
REMARK  128  A    between atoms: _301  and  _304
REMARK  129  A    between atoms: _304  and  _305
REMARK  130  A    between atoms: _315  and  _317
REMARK  131  A    between atoms: _317  and  _318
REMARK  132  A    between atoms: _317  and  _320
REMARK  133  A    between atoms: _320  and  _321
REMARK  134  A    between atoms: _325  and  ZN_335
REMARK  135  A    between atoms: _326  and  _328
REMARK  136  A    between atoms: _328  and  _329
REMARK  137  A    between atoms: _328  and  _331
REMARK  138  A    between atoms: _331  and  _332
REMARK                            x       y       z     vdW  Elec       q    Type
REMARK                         _______ _______ _______ _____ _____    ______ ____
ROOT
ATOM      1  O   HOH     1      -4.981  51.529  25.915  0.00  0.00    +0.000 OA
ENDROOT
TORSDOF 0
REMARK  Name = ../refined-set-2016/3pb7/3pb7_pocket.pdb
REMARK  138 active torsions:
REMARK  status: ('A' for Active; 'I' for Inactive)
REMARK    1  A    between atoms: _1  and  _3
REMARK    2  A    between atoms: _3  and  _4
REMARK    3  A    between atoms: _3  and  _6
REMARK    4  A    between atoms: _6  and  _7
REMARK    5  A    between atoms: _12  and  _14
REMARK    6  A    between atoms: _14  and  _15
REMARK    7  A    between atoms: _14  and  _17
REMARK    8  A    between atoms: _17  and  _18
REMARK    9  A    between atoms: _18  and  _19
REMARK   10  A    between atoms: _19  and  _20
REMARK   11  A    between atoms: _20  and  _21
REMARK   12  A    between atoms: _25  and  _27
REMARK   13  A    between atoms: _27  and  _28
REMARK   14  A    between atoms: _27  and  _30
REMARK   15  A    between atoms: _30  and  _31
REMARK   16  A    between atoms: _37  and  _39
REMARK   17  A    between atoms: _39  and  _40
REMARK   18  A    between atoms: _39  and  _42
REMARK   19  A    between atoms: _42  and  _43
REMARK   20  A    between atoms: _46  and  _48
REMARK   21  A    between atoms: _48  and  _49
REMARK   22  A    between atoms: _48  and  _51
REMARK   23  A    between atoms: _51  and  _52
REMARK   24  A    between atoms: _52  and  _54
REMARK   25  A    between atoms: _54  and  ZN_335
REMARK   26  A    between atoms: _55  and  _57
REMARK   27  A    between atoms: _57  and  _58
REMARK   28  A    between atoms: _57  and  _60
REMARK   29  A    between atoms: _60  and  _61
REMARK   30  A    between atoms: _63  and  _65
REMARK   31  A    between atoms: _65  and  _66
REMARK   32  A    between atoms: _65  and  _68
REMARK   33  A    between atoms: _68  and  _69
REMARK   34  A    between atoms: _69  and  _70
REMARK   35  A    between atoms: _73  and  _75
REMARK   36  A    between atoms: _75  and  _76
REMARK   37  A    between atoms: _75  and  _78
REMARK   38  A    between atoms: _78  and  _79
REMARK   39  A    between atoms: _79  and  _80
REMARK   40  A    between atoms: _80  and  _82
REMARK   41  A    between atoms: _82  and  ZN_335
REMARK   42  A    between atoms: _83  and  _85
REMARK   43  A    between atoms: _85  and  _86
REMARK   44  A    between atoms: _89  and  _91
REMARK   45  A    between atoms: _91  and  _92
REMARK   46  A    between atoms: _91  and  _94
REMARK   47  A    between atoms: _94  and  _95
REMARK   48  A    between atoms: _105  and  _107
REMARK   49  A    between atoms: _107  and  _108
REMARK   50  A    between atoms: _107  and  _110
REMARK   51  A    between atoms: _110  and  _111
REMARK   52  A    between atoms: _113  and  _115
REMARK   53  A    between atoms: _115  and  _116
REMARK   54  A    between atoms: _115  and  _118
REMARK   55  A    between atoms: _118  and  _119
REMARK   56  A    between atoms: _122  and  _124
REMARK   57  A    between atoms: _124  and  _125
REMARK   58  A    between atoms: _124  and  _127
REMARK   59  A    between atoms: _127  and  _128
REMARK   60  A    between atoms: _131  and  _133
REMARK   61  A    between atoms: _133  and  _134
REMARK   62  A    between atoms: _133  and  _136
REMARK   63  A    between atoms: _136  and  _137
REMARK   64  A    between atoms: _140  and  _142
REMARK   65  A    between atoms: _142  and  _143
REMARK   66  A    between atoms: _142  and  _145
REMARK   67  A    between atoms: _145  and  _146
REMARK   68  A    between atoms: _149  and  _151
REMARK   69  A    between atoms: _151  and  _152
REMARK   70  A    between atoms: _151  and  _154
REMARK   71  A    between atoms: _154  and  _155
REMARK   72  A    between atoms: _158  and  _160
REMARK   73  A    between atoms: _160  and  _161
REMARK   74  A    between atoms: _160  and  _163
REMARK   75  A    between atoms: _163  and  _164
REMARK   76  A    between atoms: _169  and  _171
REMARK   77  A    between atoms: _171  and  _172
REMARK   78  A    between atoms: _171  and  _174
REMARK   79  A    between atoms: _174  and  _175
REMARK   80  A    between atoms: _181  and  _183
REMARK   81  A    between atoms: _183  and  _184
REMARK   82  A    between atoms: _186  and  _188
REMARK   83  A    between atoms: _188  and  _189
REMARK   84  A    between atoms: _188  and  _191
REMARK   85  A    between atoms: _191  and  _192
REMARK   86  A    between atoms: _194  and  _196
REMARK   87  A    between atoms: _196  and  _197
REMARK   88  A    between atoms: _196  and  _199
REMARK   89  A    between atoms: _202  and  _204
REMARK   90  A    between atoms: _204  and  _205
REMARK   91  A    between atoms: _204  and  _207
REMARK   92  A    between atoms: _207  and  _208
REMARK   93  A    between atoms: _208  and  _209
REMARK   94  A    between atoms: _212  and  _214
REMARK   95  A    between atoms: _214  and  _215
REMARK   96  A    between atoms: _214  and  _217
REMARK   97  A    between atoms: _217  and  _218
REMARK   98  A    between atoms: _221  and  _223
REMARK   99  A    between atoms: _223  and  _224
REMARK  100  A    between atoms: _223  and  _226
REMARK  101  A    between atoms: _226  and  _227
REMARK  102  A    between atoms: _230  and  _232
REMARK  103  A    between atoms: _232  and  _233
REMARK  104  A    between atoms: _232  and  _235
REMARK  105  A    between atoms: _235  and  _236
REMARK  106  A    between atoms: _241  and  _243
REMARK  107  A    between atoms: _243  and  _244
REMARK  108  A    between atoms: _243  and  _246
REMARK  109  A    between atoms: _246  and  _247
REMARK  110  A    between atoms: _250  and  _252
REMARK  111  A    between atoms: _252  and  _253
REMARK  112  A    between atoms: _252  and  _255
REMARK  113  A    between atoms: _255  and  _256
REMARK  114  A    between atoms: _258  and  _260
REMARK  115  A    between atoms: _260  and  _261
REMARK  116  A    between atoms: _260  and  _263
REMARK  117  A    between atoms: _263  and  _264
REMARK  118  A    between atoms: _268  and  _269
REMARK  119  A    between atoms: _274  and  _276
REMARK  120  A    between atoms: _276  and  _277
REMARK  121  A    between atoms: _276  and  _279
REMARK  122  A    between atoms: _279  and  _280
REMARK  123  A    between atoms: _287  and  _288
REMARK  124  A    between atoms: _293  and  _295
REMARK  125  A    between atoms: _295  and  _296
REMARK  126  A    between atoms: _299  and  _301
REMARK  127  A    between atoms: _301  and  _302
REMARK  128  A    between atoms: _301  and  _304
REMARK  129  A    between atoms: _304  and  _305
REMARK  130  A    between atoms: _315  and  _317
REMARK  131  A    between atoms: _317  and  _318
REMARK  132  A    between atoms: _317  and  _320
REMARK  133  A    between atoms: _320  and  _321
REMARK  134  A    between atoms: _325  and  ZN_335
REMARK  135  A    between atoms: _326  and  _328
REMARK  136  A    between atoms: _328  and  _329
REMARK  137  A    between atoms: _328  and  _331
REMARK  138  A    between atoms: _331  and  _332
REMARK                            x       y       z     vdW  Elec       q    Type
REMARK                         _______ _______ _______ _____ _____    ______ ____
ROOT
ATOM      1  O   HOH     1       7.269  48.251  10.841  0.00  0.00    +0.000 OA
ENDROOT
TORSDOF 0
REMARK  Name = ../refined-set-2016/3pb7/3pb7_pocket.pdb
REMARK  138 active torsions:
REMARK  status: ('A' for Active; 'I' for Inactive)
REMARK    1  A    between atoms: _1  and  _3
REMARK    2  A    between atoms: _3  and  _4
REMARK    3  A    between atoms: _3  and  _6
REMARK    4  A    between atoms: _6  and  _7
REMARK    5  A    between atoms: _12  and  _14
REMARK    6  A    between atoms: _14  and  _15
REMARK    7  A    between atoms: _14  and  _17
REMARK    8  A    between atoms: _17  and  _18
REMARK    9  A    between atoms: _18  and  _19
REMARK   10  A    between atoms: _19  and  _20
REMARK   11  A    between atoms: _20  and  _21
REMARK   12  A    between atoms: _25  and  _27
REMARK   13  A    between atoms: _27  and  _28
REMARK   14  A    between atoms: _27  and  _30
REMARK   15  A    between atoms: _30  and  _31
REMARK   16  A    between atoms: _37  and  _39
REMARK   17  A    between atoms: _39  and  _40
REMARK   18  A    between atoms: _39  and  _42
REMARK   19  A    between atoms: _42  and  _43
REMARK   20  A    between atoms: _46  and  _48
REMARK   21  A    between atoms: _48  and  _49
REMARK   22  A    between atoms: _48  and  _51
REMARK   23  A    between atoms: _51  and  _52
REMARK   24  A    between atoms: _52  and  _54
REMARK   25  A    between atoms: _54  and  ZN_335
REMARK   26  A    between atoms: _55  and  _57
REMARK   27  A    between atoms: _57  and  _58
REMARK   28  A    between atoms: _57  and  _60
REMARK   29  A    between atoms: _60  and  _61
REMARK   30  A    between atoms: _63  and  _65
REMARK   31  A    between atoms: _65  and  _66
REMARK   32  A    between atoms: _65  and  _68
REMARK   33  A    between atoms: _68  and  _69
REMARK   34  A    between atoms: _69  and  _70
REMARK   35  A    between atoms: _73  and  _75
REMARK   36  A    between atoms: _75  and  _76
REMARK   37  A    between atoms: _75  and  _78
REMARK   38  A    between atoms: _78  and  _79
REMARK   39  A    between atoms: _79  and  _80
REMARK   40  A    between atoms: _80  and  _82
REMARK   41  A    between atoms: _82  and  ZN_335
REMARK   42  A    between atoms: _83  and  _85
REMARK   43  A    between atoms: _85  and  _86
REMARK   44  A    between atoms: _89  and  _91
REMARK   45  A    between atoms: _91  and  _92
REMARK   46  A    between atoms: _91  and  _94
REMARK   47  A    between atoms: _94  and  _95
REMARK   48  A    between atoms: _105  and  _107
REMARK   49  A    between atoms: _107  and  _108
REMARK   50  A    between atoms: _107  and  _110
REMARK   51  A    between atoms: _110  and  _111
REMARK   52  A    between atoms: _113  and  _115
REMARK   53  A    between atoms: _115  and  _116
REMARK   54  A    between atoms: _115  and  _118
REMARK   55  A    between atoms: _118  and  _119
REMARK   56  A    between atoms: _122  and  _124
REMARK   57  A    between atoms: _124  and  _125
REMARK   58  A    between atoms: _124  and  _127
REMARK   59  A    between atoms: _127  and  _128
REMARK   60  A    between atoms: _131  and  _133
REMARK   61  A    between atoms: _133  and  _134
REMARK   62  A    between atoms: _133  and  _136
REMARK   63  A    between atoms: _136  and  _137
REMARK   64  A    between atoms: _140  and  _142
REMARK   65  A    between atoms: _142  and  _143
REMARK   66  A    between atoms: _142  and  _145
REMARK   67  A    between atoms: _145  and  _146
REMARK   68  A    between atoms: _149  and  _151
REMARK   69  A    between atoms: _151  and  _152
REMARK   70  A    between atoms: _151  and  _154
REMARK   71  A    between atoms: _154  and  _155
REMARK   72  A    between atoms: _158  and  _160
REMARK   73  A    between atoms: _160  and  _161
REMARK   74  A    between atoms: _160  and  _163
REMARK   75  A    between atoms: _163  and  _164
REMARK   76  A    between atoms: _169  and  _171
REMARK   77  A    between atoms: _171  and  _172
REMARK   78  A    between atoms: _171  and  _174
REMARK   79  A    between atoms: _174  and  _175
REMARK   80  A    between atoms: _181  and  _183
REMARK   81  A    between atoms: _183  and  _184
REMARK   82  A    between atoms: _186  and  _188
REMARK   83  A    between atoms: _188  and  _189
REMARK   84  A    between atoms: _188  and  _191
REMARK   85  A    between atoms: _191  and  _192
REMARK   86  A    between atoms: _194  and  _196
REMARK   87  A    between atoms: _196  and  _197
REMARK   88  A    between atoms: _196  and  _199
REMARK   89  A    between atoms: _202  and  _204
REMARK   90  A    between atoms: _204  and  _205
REMARK   91  A    between atoms: _204  and  _207
REMARK   92  A    between atoms: _207  and  _208
REMARK   93  A    between atoms: _208  and  _209
REMARK   94  A    between atoms: _212  and  _214
REMARK   95  A    between atoms: _214  and  _215
REMARK   96  A    between atoms: _214  and  _217
REMARK   97  A    between atoms: _217  and  _218
REMARK   98  A    between atoms: _221  and  _223
REMARK   99  A    between atoms: _223  and  _224
REMARK  100  A    between atoms: _223  and  _226
REMARK  101  A    between atoms: _226  and  _227
REMARK  102  A    between atoms: _230  and  _232
REMARK  103  A    between atoms: _232  and  _233
REMARK  104  A    between atoms: _232  and  _235
REMARK  105  A    between atoms: _235  and  _236
REMARK  106  A    between atoms: _241  and  _243
REMARK  107  A    between atoms: _243  and  _244
REMARK  108  A    between atoms: _243  and  _246
REMARK  109  A    between atoms: _246  and  _247
REMARK  110  A    between atoms: _250  and  _252
REMARK  111  A    between atoms: _252  and  _253
REMARK  112  A    between atoms: _252  and  _255
REMARK  113  A    between atoms: _255  and  _256
REMARK  114  A    between atoms: _258  and  _260
REMARK  115  A    between atoms: _260  and  _261
REMARK  116  A    between atoms: _260  and  _263
REMARK  117  A    between atoms: _263  and  _264
REMARK  118  A    between atoms: _268  and  _269
REMARK  119  A    between atoms: _274  and  _276
REMARK  120  A    between atoms: _276  and  _277
REMARK  121  A    between atoms: _276  and  _279
REMARK  122  A    between atoms: _279  and  _280
REMARK  123  A    between atoms: _287  and  _288
REMARK  124  A    between atoms: _293  and  _295
REMARK  125  A    between atoms: _295  and  _296
REMARK  126  A    between atoms: _299  and  _301
REMARK  127  A    between atoms: _301  and  _302
REMARK  128  A    between atoms: _301  and  _304
REMARK  129  A    between atoms: _304  and  _305
REMARK  130  A    between atoms: _315  and  _317
REMARK  131  A    between atoms: _317  and  _318
REMARK  132  A    between atoms: _317  and  _320
REMARK  133  A    between atoms: _320  and  _321
REMARK  134  A    between atoms: _325  and  ZN_335
REMARK  135  A    between atoms: _326  and  _328
REMARK  136  A    between atoms: _328  and  _329
REMARK  137  A    between atoms: _328  and  _331
REMARK  138  A    between atoms: _331  and  _332
REMARK                            x       y       z     vdW  Elec       q    Type
REMARK                         _______ _______ _______ _____ _____    ______ ____
ROOT
ATOM      1  O   HOH     1      10.547  42.614  14.651  0.00  0.00    +0.000 OA
ENDROOT
TORSDOF 0
REMARK  Name = ../refined-set-2016/3pb7/3pb7_pocket.pdb
REMARK  138 active torsions:
REMARK  status: ('A' for Active; 'I' for Inactive)
REMARK    1  A    between atoms: _1  and  _3
REMARK    2  A    between atoms: _3  and  _4
REMARK    3  A    between atoms: _3  and  _6
REMARK    4  A    between atoms: _6  and  _7
REMARK    5  A    between atoms: _12  and  _14
REMARK    6  A    between atoms: _14  and  _15
REMARK    7  A    between atoms: _14  and  _17
REMARK    8  A    between atoms: _17  and  _18
REMARK    9  A    between atoms: _18  and  _19
REMARK   10  A    between atoms: _19  and  _20
REMARK   11  A    between atoms: _20  and  _21
REMARK   12  A    between atoms: _25  and  _27
REMARK   13  A    between atoms: _27  and  _28
REMARK   14  A    between atoms: _27  and  _30
REMARK   15  A    between atoms: _30  and  _31
REMARK   16  A    between atoms: _37  and  _39
REMARK   17  A    between atoms: _39  and  _40
REMARK   18  A    between atoms: _39  and  _42
REMARK   19  A    between atoms: _42  and  _43
REMARK   20  A    between atoms: _46  and  _48
REMARK   21  A    between atoms: _48  and  _49
REMARK   22  A    between atoms: _48  and  _51
REMARK   23  A    between atoms: _51  and  _52
REMARK   24  A    between atoms: _52  and  _54
REMARK   25  A    between atoms: _54  and  ZN_335
REMARK   26  A    between atoms: _55  and  _57
REMARK   27  A    between atoms: _57  and  _58
REMARK   28  A    between atoms: _57  and  _60
REMARK   29  A    between atoms: _60  and  _61
REMARK   30  A    between atoms: _63  and  _65
REMARK   31  A    between atoms: _65  and  _66
REMARK   32  A    between atoms: _65  and  _68
REMARK   33  A    between atoms: _68  and  _69
REMARK   34  A    between atoms: _69  and  _70
REMARK   35  A    between atoms: _73  and  _75
REMARK   36  A    between atoms: _75  and  _76
REMARK   37  A    between atoms: _75  and  _78
REMARK   38  A    between atoms: _78  and  _79
REMARK   39  A    between atoms: _79  and  _80
REMARK   40  A    between atoms: _80  and  _82
REMARK   41  A    between atoms: _82  and  ZN_335
REMARK   42  A    between atoms: _83  and  _85
REMARK   43  A    between atoms: _85  and  _86
REMARK   44  A    between atoms: _89  and  _91
REMARK   45  A    between atoms: _91  and  _92
REMARK   46  A    between atoms: _91  and  _94
REMARK   47  A    between atoms: _94  and  _95
REMARK   48  A    between atoms: _105  and  _107
REMARK   49  A    between atoms: _107  and  _108
REMARK   50  A    between atoms: _107  and  _110
REMARK   51  A    between atoms: _110  and  _111
REMARK   52  A    between atoms: _113  and  _115
REMARK   53  A    between atoms: _115  and  _116
REMARK   54  A    between atoms: _115  and  _118
REMARK   55  A    between atoms: _118  and  _119
REMARK   56  A    between atoms: _122  and  _124
REMARK   57  A    between atoms: _124  and  _125
REMARK   58  A    between atoms: _124  and  _127
REMARK   59  A    between atoms: _127  and  _128
REMARK   60  A    between atoms: _131  and  _133
REMARK   61  A    between atoms: _133  and  _134
REMARK   62  A    between atoms: _133  and  _136
REMARK   63  A    between atoms: _136  and  _137
REMARK   64  A    between atoms: _140  and  _142
REMARK   65  A    between atoms: _142  and  _143
REMARK   66  A    between atoms: _142  and  _145
REMARK   67  A    between atoms: _145  and  _146
REMARK   68  A    between atoms: _149  and  _151
REMARK   69  A    between atoms: _151  and  _152
REMARK   70  A    between atoms: _151  and  _154
REMARK   71  A    between atoms: _154  and  _155
REMARK   72  A    between atoms: _158  and  _160
REMARK   73  A    between atoms: _160  and  _161
REMARK   74  A    between atoms: _160  and  _163
REMARK   75  A    between atoms: _163  and  _164
REMARK   76  A    between atoms: _169  and  _171
REMARK   77  A    between atoms: _171  and  _172
REMARK   78  A    between atoms: _171  and  _174
REMARK   79  A    between atoms: _174  and  _175
REMARK   80  A    between atoms: _181  and  _183
REMARK   81  A    between atoms: _183  and  _184
REMARK   82  A    between atoms: _186  and  _188
REMARK   83  A    between atoms: _188  and  _189
REMARK   84  A    between atoms: _188  and  _191
REMARK   85  A    between atoms: _191  and  _192
REMARK   86  A    between atoms: _194  and  _196
REMARK   87  A    between atoms: _196  and  _197
REMARK   88  A    between atoms: _196  and  _199
REMARK   89  A    between atoms: _202  and  _204
REMARK   90  A    between atoms: _204  and  _205
REMARK   91  A    between atoms: _204  and  _207
REMARK   92  A    between atoms: _207  and  _208
REMARK   93  A    between atoms: _208  and  _209
REMARK   94  A    between atoms: _212  and  _214
REMARK   95  A    between atoms: _214  and  _215
REMARK   96  A    between atoms: _214  and  _217
REMARK   97  A    between atoms: _217  and  _218
REMARK   98  A    between atoms: _221  and  _223
REMARK   99  A    between atoms: _223  and  _224
REMARK  100  A    between atoms: _223  and  _226
REMARK  101  A    between atoms: _226  and  _227
REMARK  102  A    between atoms: _230  and  _232
REMARK  103  A    between atoms: _232  and  _233
REMARK  104  A    between atoms: _232  and  _235
REMARK  105  A    between atoms: _235  and  _236
REMARK  106  A    between atoms: _241  and  _243
REMARK  107  A    between atoms: _243  and  _244
REMARK  108  A    between atoms: _243  and  _246
REMARK  109  A    between atoms: _246  and  _247
REMARK  110  A    between atoms: _250  and  _252
REMARK  111  A    between atoms: _252  and  _253
REMARK  112  A    between atoms: _252  and  _255
REMARK  113  A    between atoms: _255  and  _256
REMARK  114  A    between atoms: _258  and  _260
REMARK  115  A    between atoms: _260  and  _261
REMARK  116  A    between atoms: _260  and  _263
REMARK  117  A    between atoms: _263  and  _264
REMARK  118  A    between atoms: _268  and  _269
REMARK  119  A    between atoms: _274  and  _276
REMARK  120  A    between atoms: _276  and  _277
REMARK  121  A    between atoms: _276  and  _279
REMARK  122  A    between atoms: _279  and  _280
REMARK  123  A    between atoms: _287  and  _288
REMARK  124  A    between atoms: _293  and  _295
REMARK  125  A    between atoms: _295  and  _296
REMARK  126  A    between atoms: _299  and  _301
REMARK  127  A    between atoms: _301  and  _302
REMARK  128  A    between atoms: _301  and  _304
REMARK  129  A    between atoms: _304  and  _305
REMARK  130  A    between atoms: _315  and  _317
REMARK  131  A    between atoms: _317  and  _318
REMARK  132  A    between atoms: _317  and  _320
REMARK  133  A    between atoms: _320  and  _321
REMARK  134  A    between atoms: _325  and  ZN_335
REMARK  135  A    between atoms: _326  and  _328
REMARK  136  A    between atoms: _328  and  _329
REMARK  137  A    between atoms: _328  and  _331
REMARK  138  A    between atoms: _331  and  _332
REMARK                            x       y       z     vdW  Elec       q    Type
REMARK                         _______ _______ _______ _____ _____    ______ ____
ROOT
ATOM      1  O   HOH     1       1.962  44.525  15.997  0.00  0.00    +0.000 OA
ENDROOT
TORSDOF 0
REMARK  Name = ../refined-set-2016/3pb7/3pb7_pocket.pdb
REMARK  138 active torsions:
REMARK  status: ('A' for Active; 'I' for Inactive)
REMARK    1  A    between atoms: _1  and  _3
REMARK    2  A    between atoms: _3  and  _4
REMARK    3  A    between atoms: _3  and  _6
REMARK    4  A    between atoms: _6  and  _7
REMARK    5  A    between atoms: _12  and  _14
REMARK    6  A    between atoms: _14  and  _15
REMARK    7  A    between atoms: _14  and  _17
REMARK    8  A    between atoms: _17  and  _18
REMARK    9  A    between atoms: _18  and  _19
REMARK   10  A    between atoms: _19  and  _20
REMARK   11  A    between atoms: _20  and  _21
REMARK   12  A    between atoms: _25  and  _27
REMARK   13  A    between atoms: _27  and  _28
REMARK   14  A    between atoms: _27  and  _30
REMARK   15  A    between atoms: _30  and  _31
REMARK   16  A    between atoms: _37  and  _39
REMARK   17  A    between atoms: _39  and  _40
REMARK   18  A    between atoms: _39  and  _42
REMARK   19  A    between atoms: _42  and  _43
REMARK   20  A    between atoms: _46  and  _48
REMARK   21  A    between atoms: _48  and  _49
REMARK   22  A    between atoms: _48  and  _51
REMARK   23  A    between atoms: _51  and  _52
REMARK   24  A    between atoms: _52  and  _54
REMARK   25  A    between atoms: _54  and  ZN_335
REMARK   26  A    between atoms: _55  and  _57
REMARK   27  A    between atoms: _57  and  _58
REMARK   28  A    between atoms: _57  and  _60
REMARK   29  A    between atoms: _60  and  _61
REMARK   30  A    between atoms: _63  and  _65
REMARK   31  A    between atoms: _65  and  _66
REMARK   32  A    between atoms: _65  and  _68
REMARK   33  A    between atoms: _68  and  _69
REMARK   34  A    between atoms: _69  and  _70
REMARK   35  A    between atoms: _73  and  _75
REMARK   36  A    between atoms: _75  and  _76
REMARK   37  A    between atoms: _75  and  _78
REMARK   38  A    between atoms: _78  and  _79
REMARK   39  A    between atoms: _79  and  _80
REMARK   40  A    between atoms: _80  and  _82
REMARK   41  A    between atoms: _82  and  ZN_335
REMARK   42  A    between atoms: _83  and  _85
REMARK   43  A    between atoms: _85  and  _86
REMARK   44  A    between atoms: _89  and  _91
REMARK   45  A    between atoms: _91  and  _92
REMARK   46  A    between atoms: _91  and  _94
REMARK   47  A    between atoms: _94  and  _95
REMARK   48  A    between atoms: _105  and  _107
REMARK   49  A    between atoms: _107  and  _108
REMARK   50  A    between atoms: _107  and  _110
REMARK   51  A    between atoms: _110  and  _111
REMARK   52  A    between atoms: _113  and  _115
REMARK   53  A    between atoms: _115  and  _116
REMARK   54  A    between atoms: _115  and  _118
REMARK   55  A    between atoms: _118  and  _119
REMARK   56  A    between atoms: _122  and  _124
REMARK   57  A    between atoms: _124  and  _125
REMARK   58  A    between atoms: _124  and  _127
REMARK   59  A    between atoms: _127  and  _128
REMARK   60  A    between atoms: _131  and  _133
REMARK   61  A    between atoms: _133  and  _134
REMARK   62  A    between atoms: _133  and  _136
REMARK   63  A    between atoms: _136  and  _137
REMARK   64  A    between atoms: _140  and  _142
REMARK   65  A    between atoms: _142  and  _143
REMARK   66  A    between atoms: _142  and  _145
REMARK   67  A    between atoms: _145  and  _146
REMARK   68  A    between atoms: _149  and  _151
REMARK   69  A    between atoms: _151  and  _152
REMARK   70  A    between atoms: _151  and  _154
REMARK   71  A    between atoms: _154  and  _155
REMARK   72  A    between atoms: _158  and  _160
REMARK   73  A    between atoms: _160  and  _161
REMARK   74  A    between atoms: _160  and  _163
REMARK   75  A    between atoms: _163  and  _164
REMARK   76  A    between atoms: _169  and  _171
REMARK   77  A    between atoms: _171  and  _172
REMARK   78  A    between atoms: _171  and  _174
REMARK   79  A    between atoms: _174  and  _175
REMARK   80  A    between atoms: _181  and  _183
REMARK   81  A    between atoms: _183  and  _184
REMARK   82  A    between atoms: _186  and  _188
REMARK   83  A    between atoms: _188  and  _189
REMARK   84  A    between atoms: _188  and  _191
REMARK   85  A    between atoms: _191  and  _192
REMARK   86  A    between atoms: _194  and  _196
REMARK   87  A    between atoms: _196  and  _197
REMARK   88  A    between atoms: _196  and  _199
REMARK   89  A    between atoms: _202  and  _204
REMARK   90  A    between atoms: _204  and  _205
REMARK   91  A    between atoms: _204  and  _207
REMARK   92  A    between atoms: _207  and  _208
REMARK   93  A    between atoms: _208  and  _209
REMARK   94  A    between atoms: _212  and  _214
REMARK   95  A    between atoms: _214  and  _215
REMARK   96  A    between atoms: _214  and  _217
REMARK   97  A    between atoms: _217  and  _218
REMARK   98  A    between atoms: _221  and  _223
REMARK   99  A    between atoms: _223  and  _224
REMARK  100  A    between atoms: _223  and  _226
REMARK  101  A    between atoms: _226  and  _227
REMARK  102  A    between atoms: _230  and  _232
REMARK  103  A    between atoms: _232  and  _233
REMARK  104  A    between atoms: _232  and  _235
REMARK  105  A    between atoms: _235  and  _236
REMARK  106  A    between atoms: _241  and  _243
REMARK  107  A    between atoms: _243  and  _244
REMARK  108  A    between atoms: _243  and  _246
REMARK  109  A    between atoms: _246  and  _247
REMARK  110  A    between atoms: _250  and  _252
REMARK  111  A    between atoms: _252  and  _253
REMARK  112  A    between atoms: _252  and  _255
REMARK  113  A    between atoms: _255  and  _256
REMARK  114  A    between atoms: _258  and  _260
REMARK  115  A    between atoms: _260  and  _261
REMARK  116  A    between atoms: _260  and  _263
REMARK  117  A    between atoms: _263  and  _264
REMARK  118  A    between atoms: _268  and  _269
REMARK  119  A    between atoms: _274  and  _276
REMARK  120  A    between atoms: _276  and  _277
REMARK  121  A    between atoms: _276  and  _279
REMARK  122  A    between atoms: _279  and  _280
REMARK  123  A    between atoms: _287  and  _288
REMARK  124  A    between atoms: _293  and  _295
REMARK  125  A    between atoms: _295  and  _296
REMARK  126  A    between atoms: _299  and  _301
REMARK  127  A    between atoms: _301  and  _302
REMARK  128  A    between atoms: _301  and  _304
REMARK  129  A    between atoms: _304  and  _305
REMARK  130  A    between atoms: _315  and  _317
REMARK  131  A    between atoms: _317  and  _318
REMARK  132  A    between atoms: _317  and  _320
REMARK  133  A    between atoms: _320  and  _321
REMARK  134  A    between atoms: _325  and  ZN_335
REMARK  135  A    between atoms: _326  and  _328
REMARK  136  A    between atoms: _328  and  _329
REMARK  137  A    between atoms: _328  and  _331
REMARK  138  A    between atoms: _331  and  _332
REMARK                            x       y       z     vdW  Elec       q    Type
REMARK                         _______ _______ _______ _____ _____    ______ ____
ROOT
ATOM      1  O   HOH     1      12.460  50.742  16.515  0.00  0.00    +0.000 OA
ENDROOT
TORSDOF 0
REMARK  Name = ../refined-set-2016/3pb7/3pb7_pocket.pdb
REMARK  138 active torsions:
REMARK  status: ('A' for Active; 'I' for Inactive)
REMARK    1  A    between atoms: _1  and  _3
REMARK    2  A    between atoms: _3  and  _4
REMARK    3  A    between atoms: _3  and  _6
REMARK    4  A    between atoms: _6  and  _7
REMARK    5  A    between atoms: _12  and  _14
REMARK    6  A    between atoms: _14  and  _15
REMARK    7  A    between atoms: _14  and  _17
REMARK    8  A    between atoms: _17  and  _18
REMARK    9  A    between atoms: _18  and  _19
REMARK   10  A    between atoms: _19  and  _20
REMARK   11  A    between atoms: _20  and  _21
REMARK   12  A    between atoms: _25  and  _27
REMARK   13  A    between atoms: _27  and  _28
REMARK   14  A    between atoms: _27  and  _30
REMARK   15  A    between atoms: _30  and  _31
REMARK   16  A    between atoms: _37  and  _39
REMARK   17  A    between atoms: _39  and  _40
REMARK   18  A    between atoms: _39  and  _42
REMARK   19  A    between atoms: _42  and  _43
REMARK   20  A    between atoms: _46  and  _48
REMARK   21  A    between atoms: _48  and  _49
REMARK   22  A    between atoms: _48  and  _51
REMARK   23  A    between atoms: _51  and  _52
REMARK   24  A    between atoms: _52  and  _54
REMARK   25  A    between atoms: _54  and  ZN_335
REMARK   26  A    between atoms: _55  and  _57
REMARK   27  A    between atoms: _57  and  _58
REMARK   28  A    between atoms: _57  and  _60
REMARK   29  A    between atoms: _60  and  _61
REMARK   30  A    between atoms: _63  and  _65
REMARK   31  A    between atoms: _65  and  _66
REMARK   32  A    between atoms: _65  and  _68
REMARK   33  A    between atoms: _68  and  _69
REMARK   34  A    between atoms: _69  and  _70
REMARK   35  A    between atoms: _73  and  _75
REMARK   36  A    between atoms: _75  and  _76
REMARK   37  A    between atoms: _75  and  _78
REMARK   38  A    between atoms: _78  and  _79
REMARK   39  A    between atoms: _79  and  _80
REMARK   40  A    between atoms: _80  and  _82
REMARK   41  A    between atoms: _82  and  ZN_335
REMARK   42  A    between atoms: _83  and  _85
REMARK   43  A    between atoms: _85  and  _86
REMARK   44  A    between atoms: _89  and  _91
REMARK   45  A    between atoms: _91  and  _92
REMARK   46  A    between atoms: _91  and  _94
REMARK   47  A    between atoms: _94  and  _95
REMARK   48  A    between atoms: _105  and  _107
REMARK   49  A    between atoms: _107  and  _108
REMARK   50  A    between atoms: _107  and  _110
REMARK   51  A    between atoms: _110  and  _111
REMARK   52  A    between atoms: _113  and  _115
REMARK   53  A    between atoms: _115  and  _116
REMARK   54  A    between atoms: _115  and  _118
REMARK   55  A    between atoms: _118  and  _119
REMARK   56  A    between atoms: _122  and  _124
REMARK   57  A    between atoms: _124  and  _125
REMARK   58  A    between atoms: _124  and  _127
REMARK   59  A    between atoms: _127  and  _128
REMARK   60  A    between atoms: _131  and  _133
REMARK   61  A    between atoms: _133  and  _134
REMARK   62  A    between atoms: _133  and  _136
REMARK   63  A    between atoms: _136  and  _137
REMARK   64  A    between atoms: _140  and  _142
REMARK   65  A    between atoms: _142  and  _143
REMARK   66  A    between atoms: _142  and  _145
REMARK   67  A    between atoms: _145  and  _146
REMARK   68  A    between atoms: _149  and  _151
REMARK   69  A    between atoms: _151  and  _152
REMARK   70  A    between atoms: _151  and  _154
REMARK   71  A    between atoms: _154  and  _155
REMARK   72  A    between atoms: _158  and  _160
REMARK   73  A    between atoms: _160  and  _161
REMARK   74  A    between atoms: _160  and  _163
REMARK   75  A    between atoms: _163  and  _164
REMARK   76  A    between atoms: _169  and  _171
REMARK   77  A    between atoms: _171  and  _172
REMARK   78  A    between atoms: _171  and  _174
REMARK   79  A    between atoms: _174  and  _175
REMARK   80  A    between atoms: _181  and  _183
REMARK   81  A    between atoms: _183  and  _184
REMARK   82  A    between atoms: _186  and  _188
REMARK   83  A    between atoms: _188  and  _189
REMARK   84  A    between atoms: _188  and  _191
REMARK   85  A    between atoms: _191  and  _192
REMARK   86  A    between atoms: _194  and  _196
REMARK   87  A    between atoms: _196  and  _197
REMARK   88  A    between atoms: _196  and  _199
REMARK   89  A    between atoms: _202  and  _204
REMARK   90  A    between atoms: _204  and  _205
REMARK   91  A    between atoms: _204  and  _207
REMARK   92  A    between atoms: _207  and  _208
REMARK   93  A    between atoms: _208  and  _209
REMARK   94  A    between atoms: _212  and  _214
REMARK   95  A    between atoms: _214  and  _215
REMARK   96  A    between atoms: _214  and  _217
REMARK   97  A    between atoms: _217  and  _218
REMARK   98  A    between atoms: _221  and  _223
REMARK   99  A    between atoms: _223  and  _224
REMARK  100  A    between atoms: _223  and  _226
REMARK  101  A    between atoms: _226  and  _227
REMARK  102  A    between atoms: _230  and  _232
REMARK  103  A    between atoms: _232  and  _233
REMARK  104  A    between atoms: _232  and  _235
REMARK  105  A    between atoms: _235  and  _236
REMARK  106  A    between atoms: _241  and  _243
REMARK  107  A    between atoms: _243  and  _244
REMARK  108  A    between atoms: _243  and  _246
REMARK  109  A    between atoms: _246  and  _247
REMARK  110  A    between atoms: _250  and  _252
REMARK  111  A    between atoms: _252  and  _253
REMARK  112  A    between atoms: _252  and  _255
REMARK  113  A    between atoms: _255  and  _256
REMARK  114  A    between atoms: _258  and  _260
REMARK  115  A    between atoms: _260  and  _261
REMARK  116  A    between atoms: _260  and  _263
REMARK  117  A    between atoms: _263  and  _264
REMARK  118  A    between atoms: _268  and  _269
REMARK  119  A    between atoms: _274  and  _276
REMARK  120  A    between atoms: _276  and  _277
REMARK  121  A    between atoms: _276  and  _279
REMARK  122  A    between atoms: _279  and  _280
REMARK  123  A    between atoms: _287  and  _288
REMARK  124  A    between atoms: _293  and  _295
REMARK  125  A    between atoms: _295  and  _296
REMARK  126  A    between atoms: _299  and  _301
REMARK  127  A    between atoms: _301  and  _302
REMARK  128  A    between atoms: _301  and  _304
REMARK  129  A    between atoms: _304  and  _305
REMARK  130  A    between atoms: _315  and  _317
REMARK  131  A    between atoms: _317  and  _318
REMARK  132  A    between atoms: _317  and  _320
REMARK  133  A    between atoms: _320  and  _321
REMARK  134  A    between atoms: _325  and  ZN_335
REMARK  135  A    between atoms: _326  and  _328
REMARK  136  A    between atoms: _328  and  _329
REMARK  137  A    between atoms: _328  and  _331
REMARK  138  A    between atoms: _331  and  _332
REMARK                            x       y       z     vdW  Elec       q    Type
REMARK                         _______ _______ _______ _____ _____    ______ ____
ROOT
ATOM      1  O   HOH     1      11.281  50.404  14.351  0.00  0.00    +0.000 OA
ENDROOT
TORSDOF 0
REMARK  Name = ../refined-set-2016/3pb7/3pb7_pocket.pdb
REMARK  138 active torsions:
REMARK  status: ('A' for Active; 'I' for Inactive)
REMARK    1  A    between atoms: _1  and  _3
REMARK    2  A    between atoms: _3  and  _4
REMARK    3  A    between atoms: _3  and  _6
REMARK    4  A    between atoms: _6  and  _7
REMARK    5  A    between atoms: _12  and  _14
REMARK    6  A    between atoms: _14  and  _15
REMARK    7  A    between atoms: _14  and  _17
REMARK    8  A    between atoms: _17  and  _18
REMARK    9  A    between atoms: _18  and  _19
REMARK   10  A    between atoms: _19  and  _20
REMARK   11  A    between atoms: _20  and  _21
REMARK   12  A    between atoms: _25  and  _27
REMARK   13  A    between atoms: _27  and  _28
REMARK   14  A    between atoms: _27  and  _30
REMARK   15  A    between atoms: _30  and  _31
REMARK   16  A    between atoms: _37  and  _39
REMARK   17  A    between atoms: _39  and  _40
REMARK   18  A    between atoms: _39  and  _42
REMARK   19  A    between atoms: _42  and  _43
REMARK   20  A    between atoms: _46  and  _48
REMARK   21  A    between atoms: _48  and  _49
REMARK   22  A    between atoms: _48  and  _51
REMARK   23  A    between atoms: _51  and  _52
REMARK   24  A    between atoms: _52  and  _54
REMARK   25  A    between atoms: _54  and  ZN_335
REMARK   26  A    between atoms: _55  and  _57
REMARK   27  A    between atoms: _57  and  _58
REMARK   28  A    between atoms: _57  and  _60
REMARK   29  A    between atoms: _60  and  _61
REMARK   30  A    between atoms: _63  and  _65
REMARK   31  A    between atoms: _65  and  _66
REMARK   32  A    between atoms: _65  and  _68
REMARK   33  A    between atoms: _68  and  _69
REMARK   34  A    between atoms: _69  and  _70
REMARK   35  A    between atoms: _73  and  _75
REMARK   36  A    between atoms: _75  and  _76
REMARK   37  A    between atoms: _75  and  _78
REMARK   38  A    between atoms: _78  and  _79
REMARK   39  A    between atoms: _79  and  _80
REMARK   40  A    between atoms: _80  and  _82
REMARK   41  A    between atoms: _82  and  ZN_335
REMARK   42  A    between atoms: _83  and  _85
REMARK   43  A    between atoms: _85  and  _86
REMARK   44  A    between atoms: _89  and  _91
REMARK   45  A    between atoms: _91  and  _92
REMARK   46  A    between atoms: _91  and  _94
REMARK   47  A    between atoms: _94  and  _95
REMARK   48  A    between atoms: _105  and  _107
REMARK   49  A    between atoms: _107  and  _108
REMARK   50  A    between atoms: _107  and  _110
REMARK   51  A    between atoms: _110  and  _111
REMARK   52  A    between atoms: _113  and  _115
REMARK   53  A    between atoms: _115  and  _116
REMARK   54  A    between atoms: _115  and  _118
REMARK   55  A    between atoms: _118  and  _119
REMARK   56  A    between atoms: _122  and  _124
REMARK   57  A    between atoms: _124  and  _125
REMARK   58  A    between atoms: _124  and  _127
REMARK   59  A    between atoms: _127  and  _128
REMARK   60  A    between atoms: _131  and  _133
REMARK   61  A    between atoms: _133  and  _134
REMARK   62  A    between atoms: _133  and  _136
REMARK   63  A    between atoms: _136  and  _137
REMARK   64  A    between atoms: _140  and  _142
REMARK   65  A    between atoms: _142  and  _143
REMARK   66  A    between atoms: _142  and  _145
REMARK   67  A    between atoms: _145  and  _146
REMARK   68  A    between atoms: _149  and  _151
REMARK   69  A    between atoms: _151  and  _152
REMARK   70  A    between atoms: _151  and  _154
REMARK   71  A    between atoms: _154  and  _155
REMARK   72  A    between atoms: _158  and  _160
REMARK   73  A    between atoms: _160  and  _161
REMARK   74  A    between atoms: _160  and  _163
REMARK   75  A    between atoms: _163  and  _164
REMARK   76  A    between atoms: _169  and  _171
REMARK   77  A    between atoms: _171  and  _172
REMARK   78  A    between atoms: _171  and  _174
REMARK   79  A    between atoms: _174  and  _175
REMARK   80  A    between atoms: _181  and  _183
REMARK   81  A    between atoms: _183  and  _184
REMARK   82  A    between atoms: _186  and  _188
REMARK   83  A    between atoms: _188  and  _189
REMARK   84  A    between atoms: _188  and  _191
REMARK   85  A    between atoms: _191  and  _192
REMARK   86  A    between atoms: _194  and  _196
REMARK   87  A    between atoms: _196  and  _197
REMARK   88  A    between atoms: _196  and  _199
REMARK   89  A    between atoms: _202  and  _204
REMARK   90  A    between atoms: _204  and  _205
REMARK   91  A    between atoms: _204  and  _207
REMARK   92  A    between atoms: _207  and  _208
REMARK   93  A    between atoms: _208  and  _209
REMARK   94  A    between atoms: _212  and  _214
REMARK   95  A    between atoms: _214  and  _215
REMARK   96  A    between atoms: _214  and  _217
REMARK   97  A    between atoms: _217  and  _218
REMARK   98  A    between atoms: _221  and  _223
REMARK   99  A    between atoms: _223  and  _224
REMARK  100  A    between atoms: _223  and  _226
REMARK  101  A    between atoms: _226  and  _227
REMARK  102  A    between atoms: _230  and  _232
REMARK  103  A    between atoms: _232  and  _233
REMARK  104  A    between atoms: _232  and  _235
REMARK  105  A    between atoms: _235  and  _236
REMARK  106  A    between atoms: _241  and  _243
REMARK  107  A    between atoms: _243  and  _244
REMARK  108  A    between atoms: _243  and  _246
REMARK  109  A    between atoms: _246  and  _247
REMARK  110  A    between atoms: _250  and  _252
REMARK  111  A    between atoms: _252  and  _253
REMARK  112  A    between atoms: _252  and  _255
REMARK  113  A    between atoms: _255  and  _256
REMARK  114  A    between atoms: _258  and  _260
REMARK  115  A    between atoms: _260  and  _261
REMARK  116  A    between atoms: _260  and  _263
REMARK  117  A    between atoms: _263  and  _264
REMARK  118  A    between atoms: _268  and  _269
REMARK  119  A    between atoms: _274  and  _276
REMARK  120  A    between atoms: _276  and  _277
REMARK  121  A    between atoms: _276  and  _279
REMARK  122  A    between atoms: _279  and  _280
REMARK  123  A    between atoms: _287  and  _288
REMARK  124  A    between atoms: _293  and  _295
REMARK  125  A    between atoms: _295  and  _296
REMARK  126  A    between atoms: _299  and  _301
REMARK  127  A    between atoms: _301  and  _302
REMARK  128  A    between atoms: _301  and  _304
REMARK  129  A    between atoms: _304  and  _305
REMARK  130  A    between atoms: _315  and  _317
REMARK  131  A    between atoms: _317  and  _318
REMARK  132  A    between atoms: _317  and  _320
REMARK  133  A    between atoms: _320  and  _321
REMARK  134  A    between atoms: _325  and  ZN_335
REMARK  135  A    between atoms: _326  and  _328
REMARK  136  A    between atoms: _328  and  _329
REMARK  137  A    between atoms: _328  and  _331
REMARK  138  A    between atoms: _331  and  _332
REMARK                            x       y       z     vdW  Elec       q    Type
REMARK                         _______ _______ _______ _____ _____    ______ ____
ROOT
ATOM      1  O   HOH     1       8.799  52.341  23.255  0.00  0.00    +0.000 OA
ENDROOT
TORSDOF 0
REMARK  Name = ../refined-set-2016/3pb7/3pb7_pocket.pdb
REMARK  138 active torsions:
REMARK  status: ('A' for Active; 'I' for Inactive)
REMARK    1  A    between atoms: _1  and  _3
REMARK    2  A    between atoms: _3  and  _4
REMARK    3  A    between atoms: _3  and  _6
REMARK    4  A    between atoms: _6  and  _7
REMARK    5  A    between atoms: _12  and  _14
REMARK    6  A    between atoms: _14  and  _15
REMARK    7  A    between atoms: _14  and  _17
REMARK    8  A    between atoms: _17  and  _18
REMARK    9  A    between atoms: _18  and  _19
REMARK   10  A    between atoms: _19  and  _20
REMARK   11  A    between atoms: _20  and  _21
REMARK   12  A    between atoms: _25  and  _27
REMARK   13  A    between atoms: _27  and  _28
REMARK   14  A    between atoms: _27  and  _30
REMARK   15  A    between atoms: _30  and  _31
REMARK   16  A    between atoms: _37  and  _39
REMARK   17  A    between atoms: _39  and  _40
REMARK   18  A    between atoms: _39  and  _42
REMARK   19  A    between atoms: _42  and  _43
REMARK   20  A    between atoms: _46  and  _48
REMARK   21  A    between atoms: _48  and  _49
REMARK   22  A    between atoms: _48  and  _51
REMARK   23  A    between atoms: _51  and  _52
REMARK   24  A    between atoms: _52  and  _54
REMARK   25  A    between atoms: _54  and  ZN_335
REMARK   26  A    between atoms: _55  and  _57
REMARK   27  A    between atoms: _57  and  _58
REMARK   28  A    between atoms: _57  and  _60
REMARK   29  A    between atoms: _60  and  _61
REMARK   30  A    between atoms: _63  and  _65
REMARK   31  A    between atoms: _65  and  _66
REMARK   32  A    between atoms: _65  and  _68
REMARK   33  A    between atoms: _68  and  _69
REMARK   34  A    between atoms: _69  and  _70
REMARK   35  A    between atoms: _73  and  _75
REMARK   36  A    between atoms: _75  and  _76
REMARK   37  A    between atoms: _75  and  _78
REMARK   38  A    between atoms: _78  and  _79
REMARK   39  A    between atoms: _79  and  _80
REMARK   40  A    between atoms: _80  and  _82
REMARK   41  A    between atoms: _82  and  ZN_335
REMARK   42  A    between atoms: _83  and  _85
REMARK   43  A    between atoms: _85  and  _86
REMARK   44  A    between atoms: _89  and  _91
REMARK   45  A    between atoms: _91  and  _92
REMARK   46  A    between atoms: _91  and  _94
REMARK   47  A    between atoms: _94  and  _95
REMARK   48  A    between atoms: _105  and  _107
REMARK   49  A    between atoms: _107  and  _108
REMARK   50  A    between atoms: _107  and  _110
REMARK   51  A    between atoms: _110  and  _111
REMARK   52  A    between atoms: _113  and  _115
REMARK   53  A    between atoms: _115  and  _116
REMARK   54  A    between atoms: _115  and  _118
REMARK   55  A    between atoms: _118  and  _119
REMARK   56  A    between atoms: _122  and  _124
REMARK   57  A    between atoms: _124  and  _125
REMARK   58  A    between atoms: _124  and  _127
REMARK   59  A    between atoms: _127  and  _128
REMARK   60  A    between atoms: _131  and  _133
REMARK   61  A    between atoms: _133  and  _134
REMARK   62  A    between atoms: _133  and  _136
REMARK   63  A    between atoms: _136  and  _137
REMARK   64  A    between atoms: _140  and  _142
REMARK   65  A    between atoms: _142  and  _143
REMARK   66  A    between atoms: _142  and  _145
REMARK   67  A    between atoms: _145  and  _146
REMARK   68  A    between atoms: _149  and  _151
REMARK   69  A    between atoms: _151  and  _152
REMARK   70  A    between atoms: _151  and  _154
REMARK   71  A    between atoms: _154  and  _155
REMARK   72  A    between atoms: _158  and  _160
REMARK   73  A    between atoms: _160  and  _161
REMARK   74  A    between atoms: _160  and  _163
REMARK   75  A    between atoms: _163  and  _164
REMARK   76  A    between atoms: _169  and  _171
REMARK   77  A    between atoms: _171  and  _172
REMARK   78  A    between atoms: _171  and  _174
REMARK   79  A    between atoms: _174  and  _175
REMARK   80  A    between atoms: _181  and  _183
REMARK   81  A    between atoms: _183  and  _184
REMARK   82  A    between atoms: _186  and  _188
REMARK   83  A    between atoms: _188  and  _189
REMARK   84  A    between atoms: _188  and  _191
REMARK   85  A    between atoms: _191  and  _192
REMARK   86  A    between atoms: _194  and  _196
REMARK   87  A    between atoms: _196  and  _197
REMARK   88  A    between atoms: _196  and  _199
REMARK   89  A    between atoms: _202  and  _204
REMARK   90  A    between atoms: _204  and  _205
REMARK   91  A    between atoms: _204  and  _207
REMARK   92  A    between atoms: _207  and  _208
REMARK   93  A    between atoms: _208  and  _209
REMARK   94  A    between atoms: _212  and  _214
REMARK   95  A    between atoms: _214  and  _215
REMARK   96  A    between atoms: _214  and  _217
REMARK   97  A    between atoms: _217  and  _218
REMARK   98  A    between atoms: _221  and  _223
REMARK   99  A    between atoms: _223  and  _224
REMARK  100  A    between atoms: _223  and  _226
REMARK  101  A    between atoms: _226  and  _227
REMARK  102  A    between atoms: _230  and  _232
REMARK  103  A    between atoms: _232  and  _233
REMARK  104  A    between atoms: _232  and  _235
REMARK  105  A    between atoms: _235  and  _236
REMARK  106  A    between atoms: _241  and  _243
REMARK  107  A    between atoms: _243  and  _244
REMARK  108  A    between atoms: _243  and  _246
REMARK  109  A    between atoms: _246  and  _247
REMARK  110  A    between atoms: _250  and  _252
REMARK  111  A    between atoms: _252  and  _253
REMARK  112  A    between atoms: _252  and  _255
REMARK  113  A    between atoms: _255  and  _256
REMARK  114  A    between atoms: _258  and  _260
REMARK  115  A    between atoms: _260  and  _261
REMARK  116  A    between atoms: _260  and  _263
REMARK  117  A    between atoms: _263  and  _264
REMARK  118  A    between atoms: _268  and  _269
REMARK  119  A    between atoms: _274  and  _276
REMARK  120  A    between atoms: _276  and  _277
REMARK  121  A    between atoms: _276  and  _279
REMARK  122  A    between atoms: _279  and  _280
REMARK  123  A    between atoms: _287  and  _288
REMARK  124  A    between atoms: _293  and  _295
REMARK  125  A    between atoms: _295  and  _296
REMARK  126  A    between atoms: _299  and  _301
REMARK  127  A    between atoms: _301  and  _302
REMARK  128  A    between atoms: _301  and  _304
REMARK  129  A    between atoms: _304  and  _305
REMARK  130  A    between atoms: _315  and  _317
REMARK  131  A    between atoms: _317  and  _318
REMARK  132  A    between atoms: _317  and  _320
REMARK  133  A    between atoms: _320  and  _321
REMARK  134  A    between atoms: _325  and  ZN_335
REMARK  135  A    between atoms: _326  and  _328
REMARK  136  A    between atoms: _328  and  _329
REMARK  137  A    between atoms: _328  and  _331
REMARK  138  A    between atoms: _331  and  _332
REMARK                            x       y       z     vdW  Elec       q    Type
REMARK                         _______ _______ _______ _____ _____    ______ ____
ROOT
ATOM      1  O   HOH     1       7.621  52.701  20.975  0.00  0.00    +0.000 OA
ENDROOT
TORSDOF 0
