REMARK  Name = ../refined-set-2016/2xpk/2xpk_pocket.pdb
REMARK  226 active torsions:
REMARK  status: ('A' for Active; 'I' for Inactive)
REMARK    1  A    between atoms: _1  and  _3
REMARK    2  A    between atoms: _3  and  _4
REMARK    3  A    between atoms: _3  and  _6
REMARK    4  A    between atoms: _9  and  _11
REMARK    5  A    between atoms: _11  and  _12
REMARK    6  A    between atoms: _11  and  _14
REMARK    7  A    between atoms: _14  and  _15
REMARK    8  A    between atoms: _15  and  _16
REMARK    9  A    between atoms: _19  and  _21
REMARK   10  A    between atoms: _21  and  _22
REMARK   11  A    between atoms: _24  and  _26
REMARK   12  A    between atoms: _26  and  _27
REMARK   13  A    between atoms: _26  and  _29
REMARK   14  A    between atoms: _29  and  _30
REMARK   15  A    between atoms: _36  and  _38
REMARK   16  A    between atoms: _38  and  _39
REMARK   17  A    between atoms: _38  and  _41
REMARK   18  A    between atoms: _41  and  _42
REMARK   19  A    between atoms: _47  and  _48
REMARK   20  A    between atoms: _50  and  _52
REMARK   21  A    between atoms: _52  and  _53
REMARK   22  A    between atoms: _55  and  _57
REMARK   23  A    between atoms: _57  and  _58
REMARK   24  A    between atoms: _62  and  _63
REMARK   25  A    between atoms: _68  and  _70
REMARK   26  A    between atoms: _70  and  _71
REMARK   27  A    between atoms: _70  and  _73
REMARK   28  A    between atoms: _73  and  _74
REMARK   29  A    between atoms: _74  and  _75
REMARK   30  A    between atoms: _75  and  _76
REMARK   31  A    between atoms: _76  and  _77
REMARK   32  A    between atoms: _81  and  _83
REMARK   33  A    between atoms: _83  and  _84
REMARK   34  A    between atoms: _83  and  _86
REMARK   35  A    between atoms: _86  and  _87
REMARK   36  A    between atoms: _90  and  _92
REMARK   37  A    between atoms: _92  and  _93
REMARK   38  A    between atoms: _92  and  _95
REMARK   39  A    between atoms: _95  and  _96
REMARK   40  A    between atoms: _101  and  _103
REMARK   41  A    between atoms: _103  and  _104
REMARK   42  A    between atoms: _103  and  _106
REMARK   43  A    between atoms: _106  and  _107
REMARK   44  A    between atoms: _107  and  _108
REMARK   45  A    between atoms: _108  and  _109
REMARK   46  A    between atoms: _118  and  _120
REMARK   47  A    between atoms: _120  and  _121
REMARK   48  A    between atoms: _120  and  _123
REMARK   49  A    between atoms: _123  and  _124
REMARK   50  A    between atoms: _126  and  _128
REMARK   51  A    between atoms: _128  and  _129
REMARK   52  A    between atoms: _128  and  _131
REMARK   53  A    between atoms: _131  and  _132
REMARK   54  A    between atoms: _137  and  _138
REMARK   55  A    between atoms: _140  and  _142
REMARK   56  A    between atoms: _142  and  _143
REMARK   57  A    between atoms: _142  and  _145
REMARK   58  A    between atoms: _145  and  _146
REMARK   59  A    between atoms: _156  and  _158
REMARK   60  A    between atoms: _158  and  _159
REMARK   61  A    between atoms: _158  and  _161
REMARK   62  A    between atoms: _161  and  _162
REMARK   63  A    between atoms: _165  and  _167
REMARK   64  A    between atoms: _167  and  _168
REMARK   65  A    between atoms: _167  and  _170
REMARK   66  A    between atoms: _170  and  _171
REMARK   67  A    between atoms: _174  and  _176
REMARK   68  A    between atoms: _176  and  _177
REMARK   69  A    between atoms: _176  and  _179
REMARK   70  A    between atoms: _179  and  _180
REMARK   71  A    between atoms: _183  and  _185
REMARK   72  A    between atoms: _185  and  _186
REMARK   73  A    between atoms: _185  and  _188
REMARK   74  A    between atoms: _188  and  _189
REMARK   75  A    between atoms: _192  and  _194
REMARK   76  A    between atoms: _194  and  _195
REMARK   77  A    between atoms: _194  and  _197
REMARK   78  A    between atoms: _200  and  _201
REMARK   79  A    between atoms: _206  and  _208
REMARK   80  A    between atoms: _208  and  _209
REMARK   81  A    between atoms: _208  and  _211
REMARK   82  A    between atoms: _211  and  _212
REMARK   83  A    between atoms: _215  and  _217
REMARK   84  A    between atoms: _217  and  _218
REMARK   85  A    between atoms: _217  and  _220
REMARK   86  A    between atoms: _220  and  _221
REMARK   87  A    between atoms: _221  and  _222
REMARK   88  A    between atoms: _225  and  _227
REMARK   89  A    between atoms: _227  and  _228
REMARK   90  A    between atoms: _227  and  _230
REMARK   91  A    between atoms: _230  and  _231
REMARK   92  A    between atoms: _236  and  _237
REMARK   93  A    between atoms: _239  and  _241
REMARK   94  A    between atoms: _241  and  _242
REMARK   95  A    between atoms: _241  and  _244
REMARK   96  A    between atoms: _244  and  _245
REMARK   97  A    between atoms: _248  and  _250
REMARK   98  A    between atoms: _250  and  _251
REMARK   99  A    between atoms: _250  and  _253
REMARK  100  A    between atoms: _256  and  _258
REMARK  101  A    between atoms: _258  and  _259
REMARK  102  A    between atoms: _258  and  _261
REMARK  103  A    between atoms: _261  and  _262
REMARK  104  A    between atoms: _262  and  _263
REMARK  105  A    between atoms: _265  and  _267
REMARK  106  A    between atoms: _267  and  _268
REMARK  107  A    between atoms: _267  and  _270
REMARK  108  A    between atoms: _270  and  _271
REMARK  109  A    between atoms: _281  and  _283
REMARK  110  A    between atoms: _283  and  _284
REMARK  111  A    between atoms: _283  and  _286
REMARK  112  A    between atoms: _286  and  _287
REMARK  113  A    between atoms: _290  and  _292
REMARK  114  A    between atoms: _292  and  _293
REMARK  115  A    between atoms: _295  and  _297
REMARK  116  A    between atoms: _297  and  _298
REMARK  117  A    between atoms: _300  and  _302
REMARK  118  A    between atoms: _302  and  _303
REMARK  119  A    between atoms: _302  and  _305
REMARK  120  A    between atoms: _308  and  _310
REMARK  121  A    between atoms: _310  and  _311
REMARK  122  A    between atoms: _310  and  _313
REMARK  123  A    between atoms: _316  and  _318
REMARK  124  A    between atoms: _318  and  _319
REMARK  125  A    between atoms: _322  and  _324
REMARK  126  A    between atoms: _324  and  _325
REMARK  127  A    between atoms: _324  and  _327
REMARK  128  A    between atoms: _330  and  _332
REMARK  129  A    between atoms: _332  and  _333
REMARK  130  A    between atoms: _332  and  _335
REMARK  131  A    between atoms: _335  and  _336
REMARK  132  A    between atoms: _346  and  _348
REMARK  133  A    between atoms: _348  and  _349
REMARK  134  A    between atoms: _348  and  _351
REMARK  135  A    between atoms: _351  and  _352
REMARK  136  A    between atoms: _362  and  _364
REMARK  137  A    between atoms: _364  and  _365
REMARK  138  A    between atoms: _364  and  _367
REMARK  139  A    between atoms: _367  and  _368
REMARK  140  A    between atoms: _373  and  _375
REMARK  141  A    between atoms: _375  and  _376
REMARK  142  A    between atoms: _375  and  _378
REMARK  143  A    between atoms: _378  and  _379
REMARK  144  A    between atoms: _384  and  _385
REMARK  145  A    between atoms: _387  and  _389
REMARK  146  A    between atoms: _389  and  _390
REMARK  147  A    between atoms: _389  and  _392
REMARK  148  A    between atoms: _395  and  _397
REMARK  149  A    between atoms: _397  and  _398
REMARK  150  A    between atoms: _397  and  _400
REMARK  151  A    between atoms: _400  and  _401
REMARK  152  A    between atoms: _404  and  _406
REMARK  153  A    between atoms: _406  and  _407
REMARK  154  A    between atoms: _406  and  _409
REMARK  155  A    between atoms: _409  and  _410
REMARK  156  A    between atoms: _413  and  _415
REMARK  157  A    between atoms: _415  and  _416
REMARK  158  A    between atoms: _415  and  _418
REMARK  159  A    between atoms: _418  and  _419
REMARK  160  A    between atoms: _424  and  _425
REMARK  161  A    between atoms: _427  and  _429
REMARK  162  A    between atoms: _429  and  _430
REMARK  163  A    between atoms: _429  and  _432
REMARK  164  A    between atoms: _432  and  _433
REMARK  165  A    between atoms: _439  and  _441
REMARK  166  A    between atoms: _441  and  _442
REMARK  167  A    between atoms: _441  and  _444
REMARK  168  A    between atoms: _444  and  _445
REMARK  169  A    between atoms: _448  and  _450
REMARK  170  A    between atoms: _450  and  _451
REMARK  171  A    between atoms: _450  and  _453
REMARK  172  A    between atoms: _453  and  _454
REMARK  173  A    between atoms: _460  and  _461
REMARK  174  A    between atoms: _466  and  _468
REMARK  175  A    between atoms: _468  and  _469
REMARK  176  A    between atoms: _468  and  _471
REMARK  177  A    between atoms: _471  and  _472
REMARK  178  A    between atoms: _477  and  _479
REMARK  179  A    between atoms: _479  and  _480
REMARK  180  A    between atoms: _479  and  _482
REMARK  181  A    between atoms: _482  and  _483
REMARK  182  A    between atoms: _493  and  _495
REMARK  183  A    between atoms: _495  and  _496
REMARK  184  A    between atoms: _499  and  _501
REMARK  185  A    between atoms: _501  and  _502
REMARK  186  A    between atoms: _501  and  _504
REMARK  187  A    between atoms: _504  and  _505
REMARK  188  A    between atoms: _508  and  _510
REMARK  189  A    between atoms: _510  and  _511
REMARK  190  A    between atoms: _510  and  _513
REMARK  191  A    between atoms: _513  and  _514
REMARK  192  A    between atoms: _516  and  _518
REMARK  193  A    between atoms: _518  and  _519
REMARK  194  A    between atoms: _518  and  _521
REMARK  195  A    between atoms: _521  and  _522
REMARK  196  A    between atoms: _524  and  _526
REMARK  197  A    between atoms: _526  and  _527
REMARK  198  A    between atoms: _526  and  _529
REMARK  199  A    between atoms: _529  and  _530
REMARK  200  A    between atoms: _530  and  _531
REMARK  201  A    between atoms: _531  and  _532
REMARK  202  A    between atoms: _532  and  _533
REMARK  203  A    between atoms: _537  and  _539
REMARK  204  A    between atoms: _539  and  _540
REMARK  205  A    between atoms: _539  and  _542
REMARK  206  A    between atoms: _542  and  _543
REMARK  207  A    between atoms: _549  and  _551
REMARK  208  A    between atoms: _551  and  _552
REMARK  209  A    between atoms: _551  and  _554
REMARK  210  A    between atoms: _554  and  _555
REMARK  211  A    between atoms: _558  and  _560
REMARK  212  A    between atoms: _560  and  _561
REMARK  213  A    between atoms: _560  and  _563
REMARK  214  A    between atoms: _563  and  _564
REMARK  215  A    between atoms: _567  and  _569
REMARK  216  A    between atoms: _569  and  _570
REMARK  217  A    between atoms: _569  and  _572
REMARK  218  A    between atoms: _572  and  _573
REMARK  219  A    between atoms: _576  and  _578
REMARK  220  A    between atoms: _578  and  _579
REMARK  221  A    between atoms: _578  and  _581
REMARK  222  A    between atoms: _581  and  _582
REMARK  223  A    between atoms: _585  and  _587
REMARK  224  A    between atoms: _587  and  _588
REMARK  225  A    between atoms: _587  and  _590
REMARK  226  A    between atoms: _590  and  _591
REMARK                            x       y       z     vdW  Elec       q    Type
REMARK                         _______ _______ _______ _____ _____    ______ ____
ROOT
ATOM      1  CA  PHE A   4      -1.660   3.380  11.421  0.00  0.00    +0.153 C 
ENDROOT
BRANCH   1   4
ATOM      2  C   GLY A   3      -1.156   1.069  11.223  0.00  0.00    +0.243 C 
ATOM      3  O   GLY A   3      -0.698   1.056  12.354  0.00  0.00    -0.273 OA
ATOM      4  N   PHE A   4      -1.747   2.131  10.710  0.00  0.00    -0.297 N 
ATOM      5  H   PHE A   4      -2.265   2.067   9.810  0.00  0.00    +0.150 HD
BRANCH   2   6
ATOM      6  CA  GLY A   3      -1.125  -0.155  10.376  0.00  0.00    +0.176 C 
BRANCH   6   8
ATOM      7  C   GLU A   2      -1.943  -0.548   8.138  0.00  0.00    +0.241 C 
ATOM      8  N   GLY A   3      -1.170   0.158   8.961  0.00  0.00    -0.295 N 
ATOM      9  H   GLY A   3      -0.595   0.939   8.586  0.00  0.00    +0.150 HD
ATOM     10  O   GLU A   2      -2.835  -1.312   8.536  0.00  0.00    -0.273 OA
BRANCH   7  11
ATOM     11  CA  GLU A   2      -1.629  -0.391   6.658  0.00  0.00    +0.149 C 
BRANCH  11  14
ATOM     12  C   VAL A   1       0.541  -1.351   6.731  0.00  0.00    +0.238 C 
ATOM     13  O   VAL A   1       0.982  -0.287   7.171  0.00  0.00    -0.274 OA
ATOM     14  N   GLU A   2      -0.736  -1.485   6.393  0.00  0.00    -0.297 N 
ATOM     15  H   GLU A   2      -1.081  -2.359   5.948  0.00  0.00    +0.150 HD
BRANCH  12  16
ATOM     16  CA  VAL A   1       1.451  -2.574   6.505  0.00  0.00    +0.145 C 
BRANCH  16  17
ATOM     17  CB  VAL A   1       2.107  -3.101   7.827  0.00  0.00    +0.025 C 
ATOM     18  CG2 VAL A   1       1.048  -3.377   8.898  0.00  0.00    +0.002 C 
ATOM     19  CG1 VAL A   1       3.216  -2.152   8.348  0.00  0.00    +0.002 C 
ENDBRANCH  16  17
BRANCH  16  20
ATOM     20  N   VAL A   1       2.449  -2.268   5.477  0.00  0.00    -0.238 NA
ATOM     21  H   VAL A   1       3.206  -1.592   5.703  0.00  0.00    +0.142 HD
ENDBRANCH  16  20
ENDBRANCH  12  16
ENDBRANCH  11  14
BRANCH  11  22
ATOM     22  CB  GLU A   2      -2.864  -0.420   5.756  0.00  0.00    +0.041 C 
BRANCH  22  23
ATOM     23  CG  GLU A   2      -3.684   0.834   5.895  0.00  0.00    +0.116 C 
BRANCH  23  24
ATOM     24  CD  GLU A   2      -5.082   0.754   5.294  0.00  0.00    +0.365 C 
ATOM     25  OE2 GLU A   2      -5.960   1.521   5.753  0.00  0.00    -0.246 OA
ATOM     26  OE1 GLU A   2      -5.295  -0.031   4.355  0.00  0.00    -0.246 OA
ENDBRANCH  23  24
ENDBRANCH  22  23
ENDBRANCH  11  22
ENDBRANCH   7  11
ENDBRANCH   6   8
ENDBRANCH   2   6
ENDBRANCH   1   4
BRANCH   1  27
ATOM     27  C   PHE A   4      -2.947   3.705  12.134  0.00  0.00    +0.241 C 
ATOM     28  N   TYR A   5      -2.849   4.740  12.960  0.00  0.00    -0.297 N 
ATOM     29  H   TYR A   5      -1.901   5.108  13.177  0.00  0.00    +0.150 HD
ATOM     30  O   PHE A   4      -3.983   3.005  11.973  0.00  0.00    -0.273 OA
BRANCH  28  31
ATOM     31  CA  TYR A   5      -3.994   5.385  13.577  0.00  0.00    +0.153 C 
BRANCH  31  32
ATOM     32  C   TYR A   5      -4.512   6.485  12.644  0.00  0.00    +0.241 C 
ATOM     33  N   GLY A   6      -5.796   6.779  12.745  0.00  0.00    -0.296 N 
ATOM     34  H   GLY A   6      -6.374   6.262  13.438  0.00  0.00    +0.150 HD
ATOM     35  O   TYR A   5      -3.772   7.041  11.838  0.00  0.00    -0.273 OA
BRANCH  33  36
ATOM     36  CA  GLY A   6      -6.439   7.810  11.915  0.00  0.00    +0.163 C 
BRANCH  36  37
ATOM     37  C   GLY A   6      -7.308   7.160  10.860  0.00  0.00    +0.229 C 
ATOM     38  O   GLY A   6      -7.475   5.923  10.860  0.00  0.00    -0.286 OA
ENDBRANCH  36  37
ENDBRANCH  33  36
ENDBRANCH  31  32
BRANCH  31  39
ATOM     39  CB  TYR A   5      -3.600   5.982  14.940  0.00  0.00    +0.055 C 
BRANCH  39  40
ATOM     40  CG  TYR A   5      -3.278   4.962  16.030  0.00  0.00    -0.020 A 
ATOM     41  CD2 TYR A   5      -4.294   4.377  16.809  0.00  0.00    -0.001 A 
ATOM     42  CE2 TYR A   5      -3.994   3.445  17.834  0.00  0.00    +0.036 A 
ATOM     43  CZ  TYR A   5      -2.677   3.104  18.083  0.00  0.00    +0.134 A 
ATOM     44  CE1 TYR A   5      -1.654   3.663  17.311  0.00  0.00    +0.036 A 
ATOM     45  CD1 TYR A   5      -1.964   4.592  16.292  0.00  0.00    -0.001 A 
BRANCH  43  46
ATOM     46  OH  TYR A   5      -2.359   2.185  19.058  0.00  0.00    -0.506 OA
ATOM     47  HH  TYR A   5      -1.376   2.069  19.093  0.00  0.00    +0.292 HD
ENDBRANCH  43  46
ENDBRANCH  39  40
ENDBRANCH  31  39
ENDBRANCH  28  31
ENDBRANCH   1  27
BRANCH   1  48
ATOM     48  CB  PHE A   4      -1.261   4.499  10.468  0.00  0.00    +0.055 C 
BRANCH  48  49
ATOM     49  CG  PHE A   4      -2.053   4.524   9.199  0.00  0.00    -0.020 A 
ATOM     50  CD2 PHE A   4      -3.315   5.124   9.159  0.00  0.00    -0.004 A 
ATOM     51  CE2 PHE A   4      -4.052   5.153   7.984  0.00  0.00    -0.000 A 
ATOM     52  CZ  PHE A   4      -3.515   4.568   6.842  0.00  0.00    -0.000 A 
ATOM     53  CE1 PHE A   4      -2.246   3.983   6.873  0.00  0.00    -0.000 A 
ATOM     54  CD1 PHE A   4      -1.531   3.970   8.042  0.00  0.00    -0.004 A 
ENDBRANCH  48  49
ENDBRANCH   1  48
TORSDOF 21
REMARK  Name = ../refined-set-2016/2xpk/2xpk_pocket.pdb
REMARK  226 active torsions:
REMARK  status: ('A' for Active; 'I' for Inactive)
REMARK    1  A    between atoms: _1  and  _3
REMARK    2  A    between atoms: _3  and  _4
REMARK    3  A    between atoms: _3  and  _6
REMARK    4  A    between atoms: _9  and  _11
REMARK    5  A    between atoms: _11  and  _12
REMARK    6  A    between atoms: _11  and  _14
REMARK    7  A    between atoms: _14  and  _15
REMARK    8  A    between atoms: _15  and  _16
REMARK    9  A    between atoms: _19  and  _21
REMARK   10  A    between atoms: _21  and  _22
REMARK   11  A    between atoms: _24  and  _26
REMARK   12  A    between atoms: _26  and  _27
REMARK   13  A    between atoms: _26  and  _29
REMARK   14  A    between atoms: _29  and  _30
REMARK   15  A    between atoms: _36  and  _38
REMARK   16  A    between atoms: _38  and  _39
REMARK   17  A    between atoms: _38  and  _41
REMARK   18  A    between atoms: _41  and  _42
REMARK   19  A    between atoms: _47  and  _48
REMARK   20  A    between atoms: _50  and  _52
REMARK   21  A    between atoms: _52  and  _53
REMARK   22  A    between atoms: _55  and  _57
REMARK   23  A    between atoms: _57  and  _58
REMARK   24  A    between atoms: _62  and  _63
REMARK   25  A    between atoms: _68  and  _70
REMARK   26  A    between atoms: _70  and  _71
REMARK   27  A    between atoms: _70  and  _73
REMARK   28  A    between atoms: _73  and  _74
REMARK   29  A    between atoms: _74  and  _75
REMARK   30  A    between atoms: _75  and  _76
REMARK   31  A    between atoms: _76  and  _77
REMARK   32  A    between atoms: _81  and  _83
REMARK   33  A    between atoms: _83  and  _84
REMARK   34  A    between atoms: _83  and  _86
REMARK   35  A    between atoms: _86  and  _87
REMARK   36  A    between atoms: _90  and  _92
REMARK   37  A    between atoms: _92  and  _93
REMARK   38  A    between atoms: _92  and  _95
REMARK   39  A    between atoms: _95  and  _96
REMARK   40  A    between atoms: _101  and  _103
REMARK   41  A    between atoms: _103  and  _104
REMARK   42  A    between atoms: _103  and  _106
REMARK   43  A    between atoms: _106  and  _107
REMARK   44  A    between atoms: _107  and  _108
REMARK   45  A    between atoms: _108  and  _109
REMARK   46  A    between atoms: _118  and  _120
REMARK   47  A    between atoms: _120  and  _121
REMARK   48  A    between atoms: _120  and  _123
REMARK   49  A    between atoms: _123  and  _124
REMARK   50  A    between atoms: _126  and  _128
REMARK   51  A    between atoms: _128  and  _129
REMARK   52  A    between atoms: _128  and  _131
REMARK   53  A    between atoms: _131  and  _132
REMARK   54  A    between atoms: _137  and  _138
REMARK   55  A    between atoms: _140  and  _142
REMARK   56  A    between atoms: _142  and  _143
REMARK   57  A    between atoms: _142  and  _145
REMARK   58  A    between atoms: _145  and  _146
REMARK   59  A    between atoms: _156  and  _158
REMARK   60  A    between atoms: _158  and  _159
REMARK   61  A    between atoms: _158  and  _161
REMARK   62  A    between atoms: _161  and  _162
REMARK   63  A    between atoms: _165  and  _167
REMARK   64  A    between atoms: _167  and  _168
REMARK   65  A    between atoms: _167  and  _170
REMARK   66  A    between atoms: _170  and  _171
REMARK   67  A    between atoms: _174  and  _176
REMARK   68  A    between atoms: _176  and  _177
REMARK   69  A    between atoms: _176  and  _179
REMARK   70  A    between atoms: _179  and  _180
REMARK   71  A    between atoms: _183  and  _185
REMARK   72  A    between atoms: _185  and  _186
REMARK   73  A    between atoms: _185  and  _188
REMARK   74  A    between atoms: _188  and  _189
REMARK   75  A    between atoms: _192  and  _194
REMARK   76  A    between atoms: _194  and  _195
REMARK   77  A    between atoms: _194  and  _197
REMARK   78  A    between atoms: _200  and  _201
REMARK   79  A    between atoms: _206  and  _208
REMARK   80  A    between atoms: _208  and  _209
REMARK   81  A    between atoms: _208  and  _211
REMARK   82  A    between atoms: _211  and  _212
REMARK   83  A    between atoms: _215  and  _217
REMARK   84  A    between atoms: _217  and  _218
REMARK   85  A    between atoms: _217  and  _220
REMARK   86  A    between atoms: _220  and  _221
REMARK   87  A    between atoms: _221  and  _222
REMARK   88  A    between atoms: _225  and  _227
REMARK   89  A    between atoms: _227  and  _228
REMARK   90  A    between atoms: _227  and  _230
REMARK   91  A    between atoms: _230  and  _231
REMARK   92  A    between atoms: _236  and  _237
REMARK   93  A    between atoms: _239  and  _241
REMARK   94  A    between atoms: _241  and  _242
REMARK   95  A    between atoms: _241  and  _244
REMARK   96  A    between atoms: _244  and  _245
REMARK   97  A    between atoms: _248  and  _250
REMARK   98  A    between atoms: _250  and  _251
REMARK   99  A    between atoms: _250  and  _253
REMARK  100  A    between atoms: _256  and  _258
REMARK  101  A    between atoms: _258  and  _259
REMARK  102  A    between atoms: _258  and  _261
REMARK  103  A    between atoms: _261  and  _262
REMARK  104  A    between atoms: _262  and  _263
REMARK  105  A    between atoms: _265  and  _267
REMARK  106  A    between atoms: _267  and  _268
REMARK  107  A    between atoms: _267  and  _270
REMARK  108  A    between atoms: _270  and  _271
REMARK  109  A    between atoms: _281  and  _283
REMARK  110  A    between atoms: _283  and  _284
REMARK  111  A    between atoms: _283  and  _286
REMARK  112  A    between atoms: _286  and  _287
REMARK  113  A    between atoms: _290  and  _292
REMARK  114  A    between atoms: _292  and  _293
REMARK  115  A    between atoms: _295  and  _297
REMARK  116  A    between atoms: _297  and  _298
REMARK  117  A    between atoms: _300  and  _302
REMARK  118  A    between atoms: _302  and  _303
REMARK  119  A    between atoms: _302  and  _305
REMARK  120  A    between atoms: _308  and  _310
REMARK  121  A    between atoms: _310  and  _311
REMARK  122  A    between atoms: _310  and  _313
REMARK  123  A    between atoms: _316  and  _318
REMARK  124  A    between atoms: _318  and  _319
REMARK  125  A    between atoms: _322  and  _324
REMARK  126  A    between atoms: _324  and  _325
REMARK  127  A    between atoms: _324  and  _327
REMARK  128  A    between atoms: _330  and  _332
REMARK  129  A    between atoms: _332  and  _333
REMARK  130  A    between atoms: _332  and  _335
REMARK  131  A    between atoms: _335  and  _336
REMARK  132  A    between atoms: _346  and  _348
REMARK  133  A    between atoms: _348  and  _349
REMARK  134  A    between atoms: _348  and  _351
REMARK  135  A    between atoms: _351  and  _352
REMARK  136  A    between atoms: _362  and  _364
REMARK  137  A    between atoms: _364  and  _365
REMARK  138  A    between atoms: _364  and  _367
REMARK  139  A    between atoms: _367  and  _368
REMARK  140  A    between atoms: _373  and  _375
REMARK  141  A    between atoms: _375  and  _376
REMARK  142  A    between atoms: _375  and  _378
REMARK  143  A    between atoms: _378  and  _379
REMARK  144  A    between atoms: _384  and  _385
REMARK  145  A    between atoms: _387  and  _389
REMARK  146  A    between atoms: _389  and  _390
REMARK  147  A    between atoms: _389  and  _392
REMARK  148  A    between atoms: _395  and  _397
REMARK  149  A    between atoms: _397  and  _398
REMARK  150  A    between atoms: _397  and  _400
REMARK  151  A    between atoms: _400  and  _401
REMARK  152  A    between atoms: _404  and  _406
REMARK  153  A    between atoms: _406  and  _407
REMARK  154  A    between atoms: _406  and  _409
REMARK  155  A    between atoms: _409  and  _410
REMARK  156  A    between atoms: _413  and  _415
REMARK  157  A    between atoms: _415  and  _416
REMARK  158  A    between atoms: _415  and  _418
REMARK  159  A    between atoms: _418  and  _419
REMARK  160  A    between atoms: _424  and  _425
REMARK  161  A    between atoms: _427  and  _429
REMARK  162  A    between atoms: _429  and  _430
REMARK  163  A    between atoms: _429  and  _432
REMARK  164  A    between atoms: _432  and  _433
REMARK  165  A    between atoms: _439  and  _441
REMARK  166  A    between atoms: _441  and  _442
REMARK  167  A    between atoms: _441  and  _444
REMARK  168  A    between atoms: _444  and  _445
REMARK  169  A    between atoms: _448  and  _450
REMARK  170  A    between atoms: _450  and  _451
REMARK  171  A    between atoms: _450  and  _453
REMARK  172  A    between atoms: _453  and  _454
REMARK  173  A    between atoms: _460  and  _461
REMARK  174  A    between atoms: _466  and  _468
REMARK  175  A    between atoms: _468  and  _469
REMARK  176  A    between atoms: _468  and  _471
REMARK  177  A    between atoms: _471  and  _472
REMARK  178  A    between atoms: _477  and  _479
REMARK  179  A    between atoms: _479  and  _480
REMARK  180  A    between atoms: _479  and  _482
REMARK  181  A    between atoms: _482  and  _483
REMARK  182  A    between atoms: _493  and  _495
REMARK  183  A    between atoms: _495  and  _496
REMARK  184  A    between atoms: _499  and  _501
REMARK  185  A    between atoms: _501  and  _502
REMARK  186  A    between atoms: _501  and  _504
REMARK  187  A    between atoms: _504  and  _505
REMARK  188  A    between atoms: _508  and  _510
REMARK  189  A    between atoms: _510  and  _511
REMARK  190  A    between atoms: _510  and  _513
REMARK  191  A    between atoms: _513  and  _514
REMARK  192  A    between atoms: _516  and  _518
REMARK  193  A    between atoms: _518  and  _519
REMARK  194  A    between atoms: _518  and  _521
REMARK  195  A    between atoms: _521  and  _522
REMARK  196  A    between atoms: _524  and  _526
REMARK  197  A    between atoms: _526  and  _527
REMARK  198  A    between atoms: _526  and  _529
REMARK  199  A    between atoms: _529  and  _530
REMARK  200  A    between atoms: _530  and  _531
REMARK  201  A    between atoms: _531  and  _532
REMARK  202  A    between atoms: _532  and  _533
REMARK  203  A    between atoms: _537  and  _539
REMARK  204  A    between atoms: _539  and  _540
REMARK  205  A    between atoms: _539  and  _542
REMARK  206  A    between atoms: _542  and  _543
REMARK  207  A    between atoms: _549  and  _551
REMARK  208  A    between atoms: _551  and  _552
REMARK  209  A    between atoms: _551  and  _554
REMARK  210  A    between atoms: _554  and  _555
REMARK  211  A    between atoms: _558  and  _560
REMARK  212  A    between atoms: _560  and  _561
REMARK  213  A    between atoms: _560  and  _563
REMARK  214  A    between atoms: _563  and  _564
REMARK  215  A    between atoms: _567  and  _569
REMARK  216  A    between atoms: _569  and  _570
REMARK  217  A    between atoms: _569  and  _572
REMARK  218  A    between atoms: _572  and  _573
REMARK  219  A    between atoms: _576  and  _578
REMARK  220  A    between atoms: _578  and  _579
REMARK  221  A    between atoms: _578  and  _581
REMARK  222  A    between atoms: _581  and  _582
REMARK  223  A    between atoms: _585  and  _587
REMARK  224  A    between atoms: _587  and  _588
REMARK  225  A    between atoms: _587  and  _590
REMARK  226  A    between atoms: _590  and  _591
REMARK                            x       y       z     vdW  Elec       q    Type
REMARK                         _______ _______ _______ _____ _____    ______ ____
ROOT
ATOM      1  CA  LYS A   3      -5.876   0.512  14.052  0.00  0.00    +0.149 C 
ENDROOT
BRANCH   1   3
ATOM      2  C   PRO A   2      -6.291  -0.328  11.807  0.00  0.00    +0.241 C 
ATOM      3  N   LYS A   3      -5.532   0.361  12.647  0.00  0.00    -0.297 N 
ATOM      4  H   LYS A   3      -4.663   0.808  12.290  0.00  0.00    +0.150 HD
ATOM      5  O   PRO A   2      -7.325  -0.879  12.145  0.00  0.00    -0.273 OA
BRANCH   2   9
ATOM      6  C   ALA A   1      -4.489  -2.392  10.419  0.00  0.00    +0.241 C 
ATOM      7  O   ALA A   1      -3.769  -1.864  11.236  0.00  0.00    -0.273 OA
ATOM      8  N   PRO A   2      -5.564  -1.785   9.960  0.00  0.00    -0.272 N 
ATOM      9  CA  PRO A   2      -5.829  -0.409  10.362  0.00  0.00    +0.152 C 
ATOM     10  CB  PRO A   2      -6.980  -0.003   9.451  0.00  0.00    +0.031 C 
ATOM     11  CG  PRO A   2      -7.031  -1.065   8.391  0.00  0.00    +0.024 C 
ATOM     12  CD  PRO A   2      -6.545  -2.285   8.990  0.00  0.00    +0.094 C 
BRANCH   6  13
ATOM     13  CA  ALA A   1      -4.187  -3.798   9.900  0.00  0.00    +0.145 C 
ATOM     14  CB  ALA A   1      -2.867  -4.263  10.445  0.00  0.00    +0.028 C 
BRANCH  13  15
ATOM     15  N   ALA A   1      -4.199  -3.910   8.442  0.00  0.00    -0.238 NA
ATOM     16  H   ALA A   1      -4.017  -3.060   7.870  0.00  0.00    +0.142 HD
ENDBRANCH  13  15
ENDBRANCH   6  13
ENDBRANCH   2   9
ENDBRANCH   1   3
BRANCH   1  17
ATOM     17  C   LYS A   3      -7.294   1.030  14.240  0.00  0.00    +0.241 C 
ATOM     18  O   LYS A   3      -7.942   0.743  15.265  0.00  0.00    -0.273 OA
ATOM     19  N   ASP A   4      -7.790   1.763  13.250  0.00  0.00    -0.298 N 
ATOM     20  H   ASP A   4      -7.230   1.918  12.388  0.00  0.00    +0.150 HD
BRANCH  19  21
ATOM     21  CA  ASP A   4      -9.122   2.352  13.370  0.00  0.00    +0.148 C 
BRANCH  21  22
ATOM     22  C   ASP A   4     -10.239   1.706  12.539  0.00  0.00    +0.227 C 
ATOM     23  O   ASP A   4     -11.325   2.301  12.388  0.00  0.00    -0.286 OA
ENDBRANCH  21  22
BRANCH  21  24
ATOM     24  CB  ASP A   4      -9.060   3.876  13.210  0.00  0.00    +0.142 C 
BRANCH  24  25
ATOM     25  CG  ASP A   4      -8.482   4.559  14.449  0.00  0.00    +0.367 C 
ATOM     26  OD2 ASP A   4      -8.710   4.033  15.565  0.00  0.00    -0.246 OA
ATOM     27  OD1 ASP A   4      -7.795   5.602  14.324  0.00  0.00    -0.246 OA
ENDBRANCH  24  25
ENDBRANCH  21  24
ENDBRANCH  19  21
ENDBRANCH   1  17
BRANCH   1  28
ATOM     28  CB  LYS A   3      -4.891   1.443  14.753  0.00  0.00    +0.029 C 
BRANCH  28  29
ATOM     29  CG  LYS A   3      -3.525   0.856  14.955  0.00  0.00    +0.000 C 
BRANCH  29  30
ATOM     30  CD  LYS A   3      -3.513  -0.126  16.107  0.00  0.00    -0.024 C 
BRANCH  30  31
ATOM     31  CE  LYS A   3      -2.139  -0.311  16.634  0.00  0.00    -0.086 C 
BRANCH  31  32
ATOM     32  NZ  LYS A   3      -1.317  -0.818  15.538  0.00  0.00    +0.380 N 
ATOM     33  HZ1 LYS A   3      -0.343  -0.960  15.874  0.00  0.00    -0.089 HD
ATOM     34  HZ2 LYS A   3      -1.705  -1.723  15.205  0.00  0.00    -0.089 HD
ATOM     35  HZ3 LYS A   3      -1.319  -0.130  14.758  0.00  0.00    -0.089 HD
ENDBRANCH  31  32
ENDBRANCH  30  31
ENDBRANCH  29  30
ENDBRANCH  28  29
ENDBRANCH   1  28
TORSDOF 14
REMARK  Name = ../refined-set-2016/2xpk/2xpk_pocket.pdb
REMARK  226 active torsions:
REMARK  status: ('A' for Active; 'I' for Inactive)
REMARK    1  A    between atoms: _1  and  _3
REMARK    2  A    between atoms: _3  and  _4
REMARK    3  A    between atoms: _3  and  _6
REMARK    4  A    between atoms: _9  and  _11
REMARK    5  A    between atoms: _11  and  _12
REMARK    6  A    between atoms: _11  and  _14
REMARK    7  A    between atoms: _14  and  _15
REMARK    8  A    between atoms: _15  and  _16
REMARK    9  A    between atoms: _19  and  _21
REMARK   10  A    between atoms: _21  and  _22
REMARK   11  A    between atoms: _24  and  _26
REMARK   12  A    between atoms: _26  and  _27
REMARK   13  A    between atoms: _26  and  _29
REMARK   14  A    between atoms: _29  and  _30
REMARK   15  A    between atoms: _36  and  _38
REMARK   16  A    between atoms: _38  and  _39
REMARK   17  A    between atoms: _38  and  _41
REMARK   18  A    between atoms: _41  and  _42
REMARK   19  A    between atoms: _47  and  _48
REMARK   20  A    between atoms: _50  and  _52
REMARK   21  A    between atoms: _52  and  _53
REMARK   22  A    between atoms: _55  and  _57
REMARK   23  A    between atoms: _57  and  _58
REMARK   24  A    between atoms: _62  and  _63
REMARK   25  A    between atoms: _68  and  _70
REMARK   26  A    between atoms: _70  and  _71
REMARK   27  A    between atoms: _70  and  _73
REMARK   28  A    between atoms: _73  and  _74
REMARK   29  A    between atoms: _74  and  _75
REMARK   30  A    between atoms: _75  and  _76
REMARK   31  A    between atoms: _76  and  _77
REMARK   32  A    between atoms: _81  and  _83
REMARK   33  A    between atoms: _83  and  _84
REMARK   34  A    between atoms: _83  and  _86
REMARK   35  A    between atoms: _86  and  _87
REMARK   36  A    between atoms: _90  and  _92
REMARK   37  A    between atoms: _92  and  _93
REMARK   38  A    between atoms: _92  and  _95
REMARK   39  A    between atoms: _95  and  _96
REMARK   40  A    between atoms: _101  and  _103
REMARK   41  A    between atoms: _103  and  _104
REMARK   42  A    between atoms: _103  and  _106
REMARK   43  A    between atoms: _106  and  _107
REMARK   44  A    between atoms: _107  and  _108
REMARK   45  A    between atoms: _108  and  _109
REMARK   46  A    between atoms: _118  and  _120
REMARK   47  A    between atoms: _120  and  _121
REMARK   48  A    between atoms: _120  and  _123
REMARK   49  A    between atoms: _123  and  _124
REMARK   50  A    between atoms: _126  and  _128
REMARK   51  A    between atoms: _128  and  _129
REMARK   52  A    between atoms: _128  and  _131
REMARK   53  A    between atoms: _131  and  _132
REMARK   54  A    between atoms: _137  and  _138
REMARK   55  A    between atoms: _140  and  _142
REMARK   56  A    between atoms: _142  and  _143
REMARK   57  A    between atoms: _142  and  _145
REMARK   58  A    between atoms: _145  and  _146
REMARK   59  A    between atoms: _156  and  _158
REMARK   60  A    between atoms: _158  and  _159
REMARK   61  A    between atoms: _158  and  _161
REMARK   62  A    between atoms: _161  and  _162
REMARK   63  A    between atoms: _165  and  _167
REMARK   64  A    between atoms: _167  and  _168
REMARK   65  A    between atoms: _167  and  _170
REMARK   66  A    between atoms: _170  and  _171
REMARK   67  A    between atoms: _174  and  _176
REMARK   68  A    between atoms: _176  and  _177
REMARK   69  A    between atoms: _176  and  _179
REMARK   70  A    between atoms: _179  and  _180
REMARK   71  A    between atoms: _183  and  _185
REMARK   72  A    between atoms: _185  and  _186
REMARK   73  A    between atoms: _185  and  _188
REMARK   74  A    between atoms: _188  and  _189
REMARK   75  A    between atoms: _192  and  _194
REMARK   76  A    between atoms: _194  and  _195
REMARK   77  A    between atoms: _194  and  _197
REMARK   78  A    between atoms: _200  and  _201
REMARK   79  A    between atoms: _206  and  _208
REMARK   80  A    between atoms: _208  and  _209
REMARK   81  A    between atoms: _208  and  _211
REMARK   82  A    between atoms: _211  and  _212
REMARK   83  A    between atoms: _215  and  _217
REMARK   84  A    between atoms: _217  and  _218
REMARK   85  A    between atoms: _217  and  _220
REMARK   86  A    between atoms: _220  and  _221
REMARK   87  A    between atoms: _221  and  _222
REMARK   88  A    between atoms: _225  and  _227
REMARK   89  A    between atoms: _227  and  _228
REMARK   90  A    between atoms: _227  and  _230
REMARK   91  A    between atoms: _230  and  _231
REMARK   92  A    between atoms: _236  and  _237
REMARK   93  A    between atoms: _239  and  _241
REMARK   94  A    between atoms: _241  and  _242
REMARK   95  A    between atoms: _241  and  _244
REMARK   96  A    between atoms: _244  and  _245
REMARK   97  A    between atoms: _248  and  _250
REMARK   98  A    between atoms: _250  and  _251
REMARK   99  A    between atoms: _250  and  _253
REMARK  100  A    between atoms: _256  and  _258
REMARK  101  A    between atoms: _258  and  _259
REMARK  102  A    between atoms: _258  and  _261
REMARK  103  A    between atoms: _261  and  _262
REMARK  104  A    between atoms: _262  and  _263
REMARK  105  A    between atoms: _265  and  _267
REMARK  106  A    between atoms: _267  and  _268
REMARK  107  A    between atoms: _267  and  _270
REMARK  108  A    between atoms: _270  and  _271
REMARK  109  A    between atoms: _281  and  _283
REMARK  110  A    between atoms: _283  and  _284
REMARK  111  A    between atoms: _283  and  _286
REMARK  112  A    between atoms: _286  and  _287
REMARK  113  A    between atoms: _290  and  _292
REMARK  114  A    between atoms: _292  and  _293
REMARK  115  A    between atoms: _295  and  _297
REMARK  116  A    between atoms: _297  and  _298
REMARK  117  A    between atoms: _300  and  _302
REMARK  118  A    between atoms: _302  and  _303
REMARK  119  A    between atoms: _302  and  _305
REMARK  120  A    between atoms: _308  and  _310
REMARK  121  A    between atoms: _310  and  _311
REMARK  122  A    between atoms: _310  and  _313
REMARK  123  A    between atoms: _316  and  _318
REMARK  124  A    between atoms: _318  and  _319
REMARK  125  A    between atoms: _322  and  _324
REMARK  126  A    between atoms: _324  and  _325
REMARK  127  A    between atoms: _324  and  _327
REMARK  128  A    between atoms: _330  and  _332
REMARK  129  A    between atoms: _332  and  _333
REMARK  130  A    between atoms: _332  and  _335
REMARK  131  A    between atoms: _335  and  _336
REMARK  132  A    between atoms: _346  and  _348
REMARK  133  A    between atoms: _348  and  _349
REMARK  134  A    between atoms: _348  and  _351
REMARK  135  A    between atoms: _351  and  _352
REMARK  136  A    between atoms: _362  and  _364
REMARK  137  A    between atoms: _364  and  _365
REMARK  138  A    between atoms: _364  and  _367
REMARK  139  A    between atoms: _367  and  _368
REMARK  140  A    between atoms: _373  and  _375
REMARK  141  A    between atoms: _375  and  _376
REMARK  142  A    between atoms: _375  and  _378
REMARK  143  A    between atoms: _378  and  _379
REMARK  144  A    between atoms: _384  and  _385
REMARK  145  A    between atoms: _387  and  _389
REMARK  146  A    between atoms: _389  and  _390
REMARK  147  A    between atoms: _389  and  _392
REMARK  148  A    between atoms: _395  and  _397
REMARK  149  A    between atoms: _397  and  _398
REMARK  150  A    between atoms: _397  and  _400
REMARK  151  A    between atoms: _400  and  _401
REMARK  152  A    between atoms: _404  and  _406
REMARK  153  A    between atoms: _406  and  _407
REMARK  154  A    between atoms: _406  and  _409
REMARK  155  A    between atoms: _409  and  _410
REMARK  156  A    between atoms: _413  and  _415
REMARK  157  A    between atoms: _415  and  _416
REMARK  158  A    between atoms: _415  and  _418
REMARK  159  A    between atoms: _418  and  _419
REMARK  160  A    between atoms: _424  and  _425
REMARK  161  A    between atoms: _427  and  _429
REMARK  162  A    between atoms: _429  and  _430
REMARK  163  A    between atoms: _429  and  _432
REMARK  164  A    between atoms: _432  and  _433
REMARK  165  A    between atoms: _439  and  _441
REMARK  166  A    between atoms: _441  and  _442
REMARK  167  A    between atoms: _441  and  _444
REMARK  168  A    between atoms: _444  and  _445
REMARK  169  A    between atoms: _448  and  _450
REMARK  170  A    between atoms: _450  and  _451
REMARK  171  A    between atoms: _450  and  _453
REMARK  172  A    between atoms: _453  and  _454
REMARK  173  A    between atoms: _460  and  _461
REMARK  174  A    between atoms: _466  and  _468
REMARK  175  A    between atoms: _468  and  _469
REMARK  176  A    between atoms: _468  and  _471
REMARK  177  A    between atoms: _471  and  _472
REMARK  178  A    between atoms: _477  and  _479
REMARK  179  A    between atoms: _479  and  _480
REMARK  180  A    between atoms: _479  and  _482
REMARK  181  A    between atoms: _482  and  _483
REMARK  182  A    between atoms: _493  and  _495
REMARK  183  A    between atoms: _495  and  _496
REMARK  184  A    between atoms: _499  and  _501
REMARK  185  A    between atoms: _501  and  _502
REMARK  186  A    between atoms: _501  and  _504
REMARK  187  A    between atoms: _504  and  _505
REMARK  188  A    between atoms: _508  and  _510
REMARK  189  A    between atoms: _510  and  _511
REMARK  190  A    between atoms: _510  and  _513
REMARK  191  A    between atoms: _513  and  _514
REMARK  192  A    between atoms: _516  and  _518
REMARK  193  A    between atoms: _518  and  _519
REMARK  194  A    between atoms: _518  and  _521
REMARK  195  A    between atoms: _521  and  _522
REMARK  196  A    between atoms: _524  and  _526
REMARK  197  A    between atoms: _526  and  _527
REMARK  198  A    between atoms: _526  and  _529
REMARK  199  A    between atoms: _529  and  _530
REMARK  200  A    between atoms: _530  and  _531
REMARK  201  A    between atoms: _531  and  _532
REMARK  202  A    between atoms: _532  and  _533
REMARK  203  A    between atoms: _537  and  _539
REMARK  204  A    between atoms: _539  and  _540
REMARK  205  A    between atoms: _539  and  _542
REMARK  206  A    between atoms: _542  and  _543
REMARK  207  A    between atoms: _549  and  _551
REMARK  208  A    between atoms: _551  and  _552
REMARK  209  A    between atoms: _551  and  _554
REMARK  210  A    between atoms: _554  and  _555
REMARK  211  A    between atoms: _558  and  _560
REMARK  212  A    between atoms: _560  and  _561
REMARK  213  A    between atoms: _560  and  _563
REMARK  214  A    between atoms: _563  and  _564
REMARK  215  A    between atoms: _567  and  _569
REMARK  216  A    between atoms: _569  and  _570
REMARK  217  A    between atoms: _569  and  _572
REMARK  218  A    between atoms: _572  and  _573
REMARK  219  A    between atoms: _576  and  _578
REMARK  220  A    between atoms: _578  and  _579
REMARK  221  A    between atoms: _578  and  _581
REMARK  222  A    between atoms: _581  and  _582
REMARK  223  A    between atoms: _585  and  _587
REMARK  224  A    between atoms: _587  and  _588
REMARK  225  A    between atoms: _587  and  _590
REMARK  226  A    between atoms: _590  and  _591
REMARK                            x       y       z     vdW  Elec       q    Type
REMARK                         _______ _______ _______ _____ _____    ______ ____
ROOT
ATOM      1  CA  ARG A   2      -9.168  -4.260  16.887  0.00  0.00    +0.137 C 
ENDROOT
BRANCH   1   3
ATOM      2  C   HIS A   1      -9.198  -5.272  14.704  0.00  0.00    +0.239 C 
ATOM      3  N   ARG A   2      -9.748  -4.434  15.572  0.00  0.00    -0.298 N 
ATOM      4  H   ARG A   2     -10.600  -3.899  15.307  0.00  0.00    +0.150 HD
ATOM      5  O   HIS A   1      -8.298  -6.056  15.022  0.00  0.00    -0.274 OA
BRANCH   2   6
ATOM      6  CA  HIS A   1      -9.735  -5.236  13.264  0.00  0.00    +0.151 C 
BRANCH   6   7
ATOM      7  N   HIS A   1     -11.106  -4.766  13.203  0.00  0.00    -0.238 NA
ATOM      8  H   HIS A   1     -11.296  -3.747  13.118  0.00  0.00    +0.142 HD
ENDBRANCH   6   7
BRANCH   6   9
ATOM      9  CB  HIS A   1      -8.822  -4.378  12.369  0.00  0.00    +0.074 C 
BRANCH   9  10
ATOM     10  CG  HIS A   1      -7.369  -4.553  12.668  0.00  0.00    +0.082 A 
ATOM     11  ND1 HIS A   1      -6.639  -3.627  13.380  0.00  0.00    -0.227 NA
ATOM     12  CE1 HIS A   1      -5.400  -4.064  13.527  0.00  0.00    +0.199 A 
ATOM     13  NE2 HIS A   1      -5.304  -5.240  12.938  0.00  0.00    -0.221 NA
ATOM     14  CD2 HIS A   1      -6.523  -5.572  12.401  0.00  0.00    +0.115 A 
ENDBRANCH   9  10
ENDBRANCH   6   9
ENDBRANCH   2   6
ENDBRANCH   1   3
BRANCH   1  15
ATOM     15  C   ARG A   2     -10.216  -3.976  17.961  0.00  0.00    +0.227 C 
ATOM     16  O   ARG A   2     -10.368  -4.766  18.880  0.00  0.00    -0.286 OA
ENDBRANCH   1  15
BRANCH   1  17
ATOM     17  CB  ARG A   2      -8.074  -3.173  16.840  0.00  0.00    +0.031 C 
BRANCH  17  18
ATOM     18  CG  ARG A   2      -7.195  -3.022  18.091  0.00  0.00    +0.045 C 
BRANCH  18  19
ATOM     19  CD  ARG A   2      -5.961  -2.178  17.758  0.00  0.00    +0.174 C 
BRANCH  19  20
ATOM     20  NE  ARG A   2      -5.070  -1.928  18.901  0.00  0.00    -0.265 N 
ATOM     21  CZ  ARG A   2      -5.144  -0.867  19.716  0.00  0.00    +0.342 C 
ATOM     22  NH2 ARG A   2      -4.276  -0.742  20.711  0.00  0.00    -0.292 N 
ATOM     23 HH21 ARG A   2      -4.329   0.079  21.347  0.00  0.00    +0.255 HD
ATOM     24 HH22 ARG A   2      -3.543  -1.465  20.855  0.00  0.00    +0.255 HD
ATOM     25  NH1 ARG A   2      -6.072   0.080  19.547  0.00  0.00    -0.292 N 
ATOM     26 HH11 ARG A   2      -6.108   0.894  20.194  0.00  0.00    +0.255 HD
ATOM     27 HH12 ARG A   2      -6.758   0.003  18.769  0.00  0.00    +0.255 HD
ATOM     28  HE  ARG A   2      -4.325  -2.629  19.091  0.00  0.00    +0.259 HD
ENDBRANCH  19  20
ENDBRANCH  18  19
ENDBRANCH  17  18
ENDBRANCH   1  17
TORSDOF 10
REMARK  Name = ../refined-set-2016/2xpk/2xpk_pocket.pdb
REMARK  226 active torsions:
REMARK  status: ('A' for Active; 'I' for Inactive)
REMARK    1  A    between atoms: _1  and  _3
REMARK    2  A    between atoms: _3  and  _4
REMARK    3  A    between atoms: _3  and  _6
REMARK    4  A    between atoms: _9  and  _11
REMARK    5  A    between atoms: _11  and  _12
REMARK    6  A    between atoms: _11  and  _14
REMARK    7  A    between atoms: _14  and  _15
REMARK    8  A    between atoms: _15  and  _16
REMARK    9  A    between atoms: _19  and  _21
REMARK   10  A    between atoms: _21  and  _22
REMARK   11  A    between atoms: _24  and  _26
REMARK   12  A    between atoms: _26  and  _27
REMARK   13  A    between atoms: _26  and  _29
REMARK   14  A    between atoms: _29  and  _30
REMARK   15  A    between atoms: _36  and  _38
REMARK   16  A    between atoms: _38  and  _39
REMARK   17  A    between atoms: _38  and  _41
REMARK   18  A    between atoms: _41  and  _42
REMARK   19  A    between atoms: _47  and  _48
REMARK   20  A    between atoms: _50  and  _52
REMARK   21  A    between atoms: _52  and  _53
REMARK   22  A    between atoms: _55  and  _57
REMARK   23  A    between atoms: _57  and  _58
REMARK   24  A    between atoms: _62  and  _63
REMARK   25  A    between atoms: _68  and  _70
REMARK   26  A    between atoms: _70  and  _71
REMARK   27  A    between atoms: _70  and  _73
REMARK   28  A    between atoms: _73  and  _74
REMARK   29  A    between atoms: _74  and  _75
REMARK   30  A    between atoms: _75  and  _76
REMARK   31  A    between atoms: _76  and  _77
REMARK   32  A    between atoms: _81  and  _83
REMARK   33  A    between atoms: _83  and  _84
REMARK   34  A    between atoms: _83  and  _86
REMARK   35  A    between atoms: _86  and  _87
REMARK   36  A    between atoms: _90  and  _92
REMARK   37  A    between atoms: _92  and  _93
REMARK   38  A    between atoms: _92  and  _95
REMARK   39  A    between atoms: _95  and  _96
REMARK   40  A    between atoms: _101  and  _103
REMARK   41  A    between atoms: _103  and  _104
REMARK   42  A    between atoms: _103  and  _106
REMARK   43  A    between atoms: _106  and  _107
REMARK   44  A    between atoms: _107  and  _108
REMARK   45  A    between atoms: _108  and  _109
REMARK   46  A    between atoms: _118  and  _120
REMARK   47  A    between atoms: _120  and  _121
REMARK   48  A    between atoms: _120  and  _123
REMARK   49  A    between atoms: _123  and  _124
REMARK   50  A    between atoms: _126  and  _128
REMARK   51  A    between atoms: _128  and  _129
REMARK   52  A    between atoms: _128  and  _131
REMARK   53  A    between atoms: _131  and  _132
REMARK   54  A    between atoms: _137  and  _138
REMARK   55  A    between atoms: _140  and  _142
REMARK   56  A    between atoms: _142  and  _143
REMARK   57  A    between atoms: _142  and  _145
REMARK   58  A    between atoms: _145  and  _146
REMARK   59  A    between atoms: _156  and  _158
REMARK   60  A    between atoms: _158  and  _159
REMARK   61  A    between atoms: _158  and  _161
REMARK   62  A    between atoms: _161  and  _162
REMARK   63  A    between atoms: _165  and  _167
REMARK   64  A    between atoms: _167  and  _168
REMARK   65  A    between atoms: _167  and  _170
REMARK   66  A    between atoms: _170  and  _171
REMARK   67  A    between atoms: _174  and  _176
REMARK   68  A    between atoms: _176  and  _177
REMARK   69  A    between atoms: _176  and  _179
REMARK   70  A    between atoms: _179  and  _180
REMARK   71  A    between atoms: _183  and  _185
REMARK   72  A    between atoms: _185  and  _186
REMARK   73  A    between atoms: _185  and  _188
REMARK   74  A    between atoms: _188  and  _189
REMARK   75  A    between atoms: _192  and  _194
REMARK   76  A    between atoms: _194  and  _195
REMARK   77  A    between atoms: _194  and  _197
REMARK   78  A    between atoms: _200  and  _201
REMARK   79  A    between atoms: _206  and  _208
REMARK   80  A    between atoms: _208  and  _209
REMARK   81  A    between atoms: _208  and  _211
REMARK   82  A    between atoms: _211  and  _212
REMARK   83  A    between atoms: _215  and  _217
REMARK   84  A    between atoms: _217  and  _218
REMARK   85  A    between atoms: _217  and  _220
REMARK   86  A    between atoms: _220  and  _221
REMARK   87  A    between atoms: _221  and  _222
REMARK   88  A    between atoms: _225  and  _227
REMARK   89  A    between atoms: _227  and  _228
REMARK   90  A    between atoms: _227  and  _230
REMARK   91  A    between atoms: _230  and  _231
REMARK   92  A    between atoms: _236  and  _237
REMARK   93  A    between atoms: _239  and  _241
REMARK   94  A    between atoms: _241  and  _242
REMARK   95  A    between atoms: _241  and  _244
REMARK   96  A    between atoms: _244  and  _245
REMARK   97  A    between atoms: _248  and  _250
REMARK   98  A    between atoms: _250  and  _251
REMARK   99  A    between atoms: _250  and  _253
REMARK  100  A    between atoms: _256  and  _258
REMARK  101  A    between atoms: _258  and  _259
REMARK  102  A    between atoms: _258  and  _261
REMARK  103  A    between atoms: _261  and  _262
REMARK  104  A    between atoms: _262  and  _263
REMARK  105  A    between atoms: _265  and  _267
REMARK  106  A    between atoms: _267  and  _268
REMARK  107  A    between atoms: _267  and  _270
REMARK  108  A    between atoms: _270  and  _271
REMARK  109  A    between atoms: _281  and  _283
REMARK  110  A    between atoms: _283  and  _284
REMARK  111  A    between atoms: _283  and  _286
REMARK  112  A    between atoms: _286  and  _287
REMARK  113  A    between atoms: _290  and  _292
REMARK  114  A    between atoms: _292  and  _293
REMARK  115  A    between atoms: _295  and  _297
REMARK  116  A    between atoms: _297  and  _298
REMARK  117  A    between atoms: _300  and  _302
REMARK  118  A    between atoms: _302  and  _303
REMARK  119  A    between atoms: _302  and  _305
REMARK  120  A    between atoms: _308  and  _310
REMARK  121  A    between atoms: _310  and  _311
REMARK  122  A    between atoms: _310  and  _313
REMARK  123  A    between atoms: _316  and  _318
REMARK  124  A    between atoms: _318  and  _319
REMARK  125  A    between atoms: _322  and  _324
REMARK  126  A    between atoms: _324  and  _325
REMARK  127  A    between atoms: _324  and  _327
REMARK  128  A    between atoms: _330  and  _332
REMARK  129  A    between atoms: _332  and  _333
REMARK  130  A    between atoms: _332  and  _335
REMARK  131  A    between atoms: _335  and  _336
REMARK  132  A    between atoms: _346  and  _348
REMARK  133  A    between atoms: _348  and  _349
REMARK  134  A    between atoms: _348  and  _351
REMARK  135  A    between atoms: _351  and  _352
REMARK  136  A    between atoms: _362  and  _364
REMARK  137  A    between atoms: _364  and  _365
REMARK  138  A    between atoms: _364  and  _367
REMARK  139  A    between atoms: _367  and  _368
REMARK  140  A    between atoms: _373  and  _375
REMARK  141  A    between atoms: _375  and  _376
REMARK  142  A    between atoms: _375  and  _378
REMARK  143  A    between atoms: _378  and  _379
REMARK  144  A    between atoms: _384  and  _385
REMARK  145  A    between atoms: _387  and  _389
REMARK  146  A    between atoms: _389  and  _390
REMARK  147  A    between atoms: _389  and  _392
REMARK  148  A    between atoms: _395  and  _397
REMARK  149  A    between atoms: _397  and  _398
REMARK  150  A    between atoms: _397  and  _400
REMARK  151  A    between atoms: _400  and  _401
REMARK  152  A    between atoms: _404  and  _406
REMARK  153  A    between atoms: _406  and  _407
REMARK  154  A    between atoms: _406  and  _409
REMARK  155  A    between atoms: _409  and  _410
REMARK  156  A    between atoms: _413  and  _415
REMARK  157  A    between atoms: _415  and  _416
REMARK  158  A    between atoms: _415  and  _418
REMARK  159  A    between atoms: _418  and  _419
REMARK  160  A    between atoms: _424  and  _425
REMARK  161  A    between atoms: _427  and  _429
REMARK  162  A    between atoms: _429  and  _430
REMARK  163  A    between atoms: _429  and  _432
REMARK  164  A    between atoms: _432  and  _433
REMARK  165  A    between atoms: _439  and  _441
REMARK  166  A    between atoms: _441  and  _442
REMARK  167  A    between atoms: _441  and  _444
REMARK  168  A    between atoms: _444  and  _445
REMARK  169  A    between atoms: _448  and  _450
REMARK  170  A    between atoms: _450  and  _451
REMARK  171  A    between atoms: _450  and  _453
REMARK  172  A    between atoms: _453  and  _454
REMARK  173  A    between atoms: _460  and  _461
REMARK  174  A    between atoms: _466  and  _468
REMARK  175  A    between atoms: _468  and  _469
REMARK  176  A    between atoms: _468  and  _471
REMARK  177  A    between atoms: _471  and  _472
REMARK  178  A    between atoms: _477  and  _479
REMARK  179  A    between atoms: _479  and  _480
REMARK  180  A    between atoms: _479  and  _482
REMARK  181  A    between atoms: _482  and  _483
REMARK  182  A    between atoms: _493  and  _495
REMARK  183  A    between atoms: _495  and  _496
REMARK  184  A    between atoms: _499  and  _501
REMARK  185  A    between atoms: _501  and  _502
REMARK  186  A    between atoms: _501  and  _504
REMARK  187  A    between atoms: _504  and  _505
REMARK  188  A    between atoms: _508  and  _510
REMARK  189  A    between atoms: _510  and  _511
REMARK  190  A    between atoms: _510  and  _513
REMARK  191  A    between atoms: _513  and  _514
REMARK  192  A    between atoms: _516  and  _518
REMARK  193  A    between atoms: _518  and  _519
REMARK  194  A    between atoms: _518  and  _521
REMARK  195  A    between atoms: _521  and  _522
REMARK  196  A    between atoms: _524  and  _526
REMARK  197  A    between atoms: _526  and  _527
REMARK  198  A    between atoms: _526  and  _529
REMARK  199  A    between atoms: _529  and  _530
REMARK  200  A    between atoms: _530  and  _531
REMARK  201  A    between atoms: _531  and  _532
REMARK  202  A    between atoms: _532  and  _533
REMARK  203  A    between atoms: _537  and  _539
REMARK  204  A    between atoms: _539  and  _540
REMARK  205  A    between atoms: _539  and  _542
REMARK  206  A    between atoms: _542  and  _543
REMARK  207  A    between atoms: _549  and  _551
REMARK  208  A    between atoms: _551  and  _552
REMARK  209  A    between atoms: _551  and  _554
REMARK  210  A    between atoms: _554  and  _555
REMARK  211  A    between atoms: _558  and  _560
REMARK  212  A    between atoms: _560  and  _561
REMARK  213  A    between atoms: _560  and  _563
REMARK  214  A    between atoms: _563  and  _564
REMARK  215  A    between atoms: _567  and  _569
REMARK  216  A    between atoms: _569  and  _570
REMARK  217  A    between atoms: _569  and  _572
REMARK  218  A    between atoms: _572  and  _573
REMARK  219  A    between atoms: _576  and  _578
REMARK  220  A    between atoms: _578  and  _579
REMARK  221  A    between atoms: _578  and  _581
REMARK  222  A    between atoms: _581  and  _582
REMARK  223  A    between atoms: _585  and  _587
REMARK  224  A    between atoms: _587  and  _588
REMARK  225  A    between atoms: _587  and  _590
REMARK  226  A    between atoms: _590  and  _591
REMARK                            x       y       z     vdW  Elec       q    Type
REMARK                         _______ _______ _______ _____ _____    ______ ____
ROOT
ATOM      1  CA  SER A   1      -5.446  -7.214  17.039  0.00  0.00    +0.163 C 
ENDROOT
BRANCH   1   2
ATOM      2  N   SER A   1      -6.064  -7.668  15.809  0.00  0.00    -0.237 NA
ATOM      3  H   SER A   1      -7.012  -7.324  15.555  0.00  0.00    +0.142 HD
ENDBRANCH   1   2
BRANCH   1   4
ATOM      4  C   SER A   1      -6.396  -7.390  18.213  0.00  0.00    +0.227 C 
ATOM      5  O   SER A   1      -7.173  -6.475  18.553  0.00  0.00    -0.287 OA
ENDBRANCH   1   4
BRANCH   1   6
ATOM      6  CB  SER A   1      -4.980  -5.747  16.926  0.00  0.00    +0.162 C 
BRANCH   6   7
ATOM      7  OG  SER A   1      -4.132  -5.554  15.805  0.00  0.00    -0.380 OA
ATOM      8  H   SER A   1      -3.853  -4.605  15.763  0.00  0.00    +0.211 HD
ENDBRANCH   6   7
ENDBRANCH   1   6
TORSDOF 4
REMARK  Name = ../refined-set-2016/2xpk/2xpk_pocket.pdb
REMARK  226 active torsions:
REMARK  status: ('A' for Active; 'I' for Inactive)
REMARK    1  A    between atoms: _1  and  _3
REMARK    2  A    between atoms: _3  and  _4
REMARK    3  A    between atoms: _3  and  _6
REMARK    4  A    between atoms: _9  and  _11
REMARK    5  A    between atoms: _11  and  _12
REMARK    6  A    between atoms: _11  and  _14
REMARK    7  A    between atoms: _14  and  _15
REMARK    8  A    between atoms: _15  and  _16
REMARK    9  A    between atoms: _19  and  _21
REMARK   10  A    between atoms: _21  and  _22
REMARK   11  A    between atoms: _24  and  _26
REMARK   12  A    between atoms: _26  and  _27
REMARK   13  A    between atoms: _26  and  _29
REMARK   14  A    between atoms: _29  and  _30
REMARK   15  A    between atoms: _36  and  _38
REMARK   16  A    between atoms: _38  and  _39
REMARK   17  A    between atoms: _38  and  _41
REMARK   18  A    between atoms: _41  and  _42
REMARK   19  A    between atoms: _47  and  _48
REMARK   20  A    between atoms: _50  and  _52
REMARK   21  A    between atoms: _52  and  _53
REMARK   22  A    between atoms: _55  and  _57
REMARK   23  A    between atoms: _57  and  _58
REMARK   24  A    between atoms: _62  and  _63
REMARK   25  A    between atoms: _68  and  _70
REMARK   26  A    between atoms: _70  and  _71
REMARK   27  A    between atoms: _70  and  _73
REMARK   28  A    between atoms: _73  and  _74
REMARK   29  A    between atoms: _74  and  _75
REMARK   30  A    between atoms: _75  and  _76
REMARK   31  A    between atoms: _76  and  _77
REMARK   32  A    between atoms: _81  and  _83
REMARK   33  A    between atoms: _83  and  _84
REMARK   34  A    between atoms: _83  and  _86
REMARK   35  A    between atoms: _86  and  _87
REMARK   36  A    between atoms: _90  and  _92
REMARK   37  A    between atoms: _92  and  _93
REMARK   38  A    between atoms: _92  and  _95
REMARK   39  A    between atoms: _95  and  _96
REMARK   40  A    between atoms: _101  and  _103
REMARK   41  A    between atoms: _103  and  _104
REMARK   42  A    between atoms: _103  and  _106
REMARK   43  A    between atoms: _106  and  _107
REMARK   44  A    between atoms: _107  and  _108
REMARK   45  A    between atoms: _108  and  _109
REMARK   46  A    between atoms: _118  and  _120
REMARK   47  A    between atoms: _120  and  _121
REMARK   48  A    between atoms: _120  and  _123
REMARK   49  A    between atoms: _123  and  _124
REMARK   50  A    between atoms: _126  and  _128
REMARK   51  A    between atoms: _128  and  _129
REMARK   52  A    between atoms: _128  and  _131
REMARK   53  A    between atoms: _131  and  _132
REMARK   54  A    between atoms: _137  and  _138
REMARK   55  A    between atoms: _140  and  _142
REMARK   56  A    between atoms: _142  and  _143
REMARK   57  A    between atoms: _142  and  _145
REMARK   58  A    between atoms: _145  and  _146
REMARK   59  A    between atoms: _156  and  _158
REMARK   60  A    between atoms: _158  and  _159
REMARK   61  A    between atoms: _158  and  _161
REMARK   62  A    between atoms: _161  and  _162
REMARK   63  A    between atoms: _165  and  _167
REMARK   64  A    between atoms: _167  and  _168
REMARK   65  A    between atoms: _167  and  _170
REMARK   66  A    between atoms: _170  and  _171
REMARK   67  A    between atoms: _174  and  _176
REMARK   68  A    between atoms: _176  and  _177
REMARK   69  A    between atoms: _176  and  _179
REMARK   70  A    between atoms: _179  and  _180
REMARK   71  A    between atoms: _183  and  _185
REMARK   72  A    between atoms: _185  and  _186
REMARK   73  A    between atoms: _185  and  _188
REMARK   74  A    between atoms: _188  and  _189
REMARK   75  A    between atoms: _192  and  _194
REMARK   76  A    between atoms: _194  and  _195
REMARK   77  A    between atoms: _194  and  _197
REMARK   78  A    between atoms: _200  and  _201
REMARK   79  A    between atoms: _206  and  _208
REMARK   80  A    between atoms: _208  and  _209
REMARK   81  A    between atoms: _208  and  _211
REMARK   82  A    between atoms: _211  and  _212
REMARK   83  A    between atoms: _215  and  _217
REMARK   84  A    between atoms: _217  and  _218
REMARK   85  A    between atoms: _217  and  _220
REMARK   86  A    between atoms: _220  and  _221
REMARK   87  A    between atoms: _221  and  _222
REMARK   88  A    between atoms: _225  and  _227
REMARK   89  A    between atoms: _227  and  _228
REMARK   90  A    between atoms: _227  and  _230
REMARK   91  A    between atoms: _230  and  _231
REMARK   92  A    between atoms: _236  and  _237
REMARK   93  A    between atoms: _239  and  _241
REMARK   94  A    between atoms: _241  and  _242
REMARK   95  A    between atoms: _241  and  _244
REMARK   96  A    between atoms: _244  and  _245
REMARK   97  A    between atoms: _248  and  _250
REMARK   98  A    between atoms: _250  and  _251
REMARK   99  A    between atoms: _250  and  _253
REMARK  100  A    between atoms: _256  and  _258
REMARK  101  A    between atoms: _258  and  _259
REMARK  102  A    between atoms: _258  and  _261
REMARK  103  A    between atoms: _261  and  _262
REMARK  104  A    between atoms: _262  and  _263
REMARK  105  A    between atoms: _265  and  _267
REMARK  106  A    between atoms: _267  and  _268
REMARK  107  A    between atoms: _267  and  _270
REMARK  108  A    between atoms: _270  and  _271
REMARK  109  A    between atoms: _281  and  _283
REMARK  110  A    between atoms: _283  and  _284
REMARK  111  A    between atoms: _283  and  _286
REMARK  112  A    between atoms: _286  and  _287
REMARK  113  A    between atoms: _290  and  _292
REMARK  114  A    between atoms: _292  and  _293
REMARK  115  A    between atoms: _295  and  _297
REMARK  116  A    between atoms: _297  and  _298
REMARK  117  A    between atoms: _300  and  _302
REMARK  118  A    between atoms: _302  and  _303
REMARK  119  A    between atoms: _302  and  _305
REMARK  120  A    between atoms: _308  and  _310
REMARK  121  A    between atoms: _310  and  _311
REMARK  122  A    between atoms: _310  and  _313
REMARK  123  A    between atoms: _316  and  _318
REMARK  124  A    between atoms: _318  and  _319
REMARK  125  A    between atoms: _322  and  _324
REMARK  126  A    between atoms: _324  and  _325
REMARK  127  A    between atoms: _324  and  _327
REMARK  128  A    between atoms: _330  and  _332
REMARK  129  A    between atoms: _332  and  _333
REMARK  130  A    between atoms: _332  and  _335
REMARK  131  A    between atoms: _335  and  _336
REMARK  132  A    between atoms: _346  and  _348
REMARK  133  A    between atoms: _348  and  _349
REMARK  134  A    between atoms: _348  and  _351
REMARK  135  A    between atoms: _351  and  _352
REMARK  136  A    between atoms: _362  and  _364
REMARK  137  A    between atoms: _364  and  _365
REMARK  138  A    between atoms: _364  and  _367
REMARK  139  A    between atoms: _367  and  _368
REMARK  140  A    between atoms: _373  and  _375
REMARK  141  A    between atoms: _375  and  _376
REMARK  142  A    between atoms: _375  and  _378
REMARK  143  A    between atoms: _378  and  _379
REMARK  144  A    between atoms: _384  and  _385
REMARK  145  A    between atoms: _387  and  _389
REMARK  146  A    between atoms: _389  and  _390
REMARK  147  A    between atoms: _389  and  _392
REMARK  148  A    between atoms: _395  and  _397
REMARK  149  A    between atoms: _397  and  _398
REMARK  150  A    between atoms: _397  and  _400
REMARK  151  A    between atoms: _400  and  _401
REMARK  152  A    between atoms: _404  and  _406
REMARK  153  A    between atoms: _406  and  _407
REMARK  154  A    between atoms: _406  and  _409
REMARK  155  A    between atoms: _409  and  _410
REMARK  156  A    between atoms: _413  and  _415
REMARK  157  A    between atoms: _415  and  _416
REMARK  158  A    between atoms: _415  and  _418
REMARK  159  A    between atoms: _418  and  _419
REMARK  160  A    between atoms: _424  and  _425
REMARK  161  A    between atoms: _427  and  _429
REMARK  162  A    between atoms: _429  and  _430
REMARK  163  A    between atoms: _429  and  _432
REMARK  164  A    between atoms: _432  and  _433
REMARK  165  A    between atoms: _439  and  _441
REMARK  166  A    between atoms: _441  and  _442
REMARK  167  A    between atoms: _441  and  _444
REMARK  168  A    between atoms: _444  and  _445
REMARK  169  A    between atoms: _448  and  _450
REMARK  170  A    between atoms: _450  and  _451
REMARK  171  A    between atoms: _450  and  _453
REMARK  172  A    between atoms: _453  and  _454
REMARK  173  A    between atoms: _460  and  _461
REMARK  174  A    between atoms: _466  and  _468
REMARK  175  A    between atoms: _468  and  _469
REMARK  176  A    between atoms: _468  and  _471
REMARK  177  A    between atoms: _471  and  _472
REMARK  178  A    between atoms: _477  and  _479
REMARK  179  A    between atoms: _479  and  _480
REMARK  180  A    between atoms: _479  and  _482
REMARK  181  A    between atoms: _482  and  _483
REMARK  182  A    between atoms: _493  and  _495
REMARK  183  A    between atoms: _495  and  _496
REMARK  184  A    between atoms: _499  and  _501
REMARK  185  A    between atoms: _501  and  _502
REMARK  186  A    between atoms: _501  and  _504
REMARK  187  A    between atoms: _504  and  _505
REMARK  188  A    between atoms: _508  and  _510
REMARK  189  A    between atoms: _510  and  _511
REMARK  190  A    between atoms: _510  and  _513
REMARK  191  A    between atoms: _513  and  _514
REMARK  192  A    between atoms: _516  and  _518
REMARK  193  A    between atoms: _518  and  _519
REMARK  194  A    between atoms: _518  and  _521
REMARK  195  A    between atoms: _521  and  _522
REMARK  196  A    between atoms: _524  and  _526
REMARK  197  A    between atoms: _526  and  _527
REMARK  198  A    between atoms: _526  and  _529
REMARK  199  A    between atoms: _529  and  _530
REMARK  200  A    between atoms: _530  and  _531
REMARK  201  A    between atoms: _531  and  _532
REMARK  202  A    between atoms: _532  and  _533
REMARK  203  A    between atoms: _537  and  _539
REMARK  204  A    between atoms: _539  and  _540
REMARK  205  A    between atoms: _539  and  _542
REMARK  206  A    between atoms: _542  and  _543
REMARK  207  A    between atoms: _549  and  _551
REMARK  208  A    between atoms: _551  and  _552
REMARK  209  A    between atoms: _551  and  _554
REMARK  210  A    between atoms: _554  and  _555
REMARK  211  A    between atoms: _558  and  _560
REMARK  212  A    between atoms: _560  and  _561
REMARK  213  A    between atoms: _560  and  _563
REMARK  214  A    between atoms: _563  and  _564
REMARK  215  A    between atoms: _567  and  _569
REMARK  216  A    between atoms: _569  and  _570
REMARK  217  A    between atoms: _569  and  _572
REMARK  218  A    between atoms: _572  and  _573
REMARK  219  A    between atoms: _576  and  _578
REMARK  220  A    between atoms: _578  and  _579
REMARK  221  A    between atoms: _578  and  _581
REMARK  222  A    between atoms: _581  and  _582
REMARK  223  A    between atoms: _585  and  _587
REMARK  224  A    between atoms: _587  and  _588
REMARK  225  A    between atoms: _587  and  _590
REMARK  226  A    between atoms: _590  and  _591
REMARK                            x       y       z     vdW  Elec       q    Type
REMARK                         _______ _______ _______ _____ _____    ______ ____
ROOT
ATOM      1  C   TRP A   2       0.637  -6.150  20.763  0.00  0.00    +0.241 C 
ATOM      2  O   TRP A   2       0.970  -5.963  21.926  0.00  0.00    -0.273 OA
ATOM      3  N   ASP A   3       0.751  -5.216  19.817  0.00  0.00    -0.297 N 
ATOM      4  H   ASP A   3       0.406  -5.423  18.858  0.00  0.00    +0.150 HD
ENDROOT
BRANCH   3   5
ATOM      5  CA  ASP A   3       1.349  -3.907  20.091  0.00  0.00    +0.160 C 
BRANCH   5   6
ATOM      6  C   ASP A   3       0.370  -2.960  20.788  0.00  0.00    +0.241 C 
ATOM      7  N   ASP A   4       0.927  -2.046  21.591  0.00  0.00    -0.297 N 
ATOM      8  H   ASP A   4       1.926  -2.160  21.855  0.00  0.00    +0.150 HD
ATOM      9  O   ASP A   3      -0.861  -3.055  20.590  0.00  0.00    -0.273 OA
BRANCH   7  10
ATOM     10  CA  ASP A   4       0.193  -0.892  22.115  0.00  0.00    +0.160 C 
BRANCH  10  11
ATOM     11  C   ASP A   4      -0.919  -1.331  23.074  0.00  0.00    +0.241 C 
ATOM     12  N   ILE A   5      -0.656  -2.371  23.875  0.00  0.00    -0.298 N 
ATOM     13  H   ILE A   5       0.255  -2.860  23.765  0.00  0.00    +0.150 HD
ATOM     14  O   ASP A   4      -2.007  -0.738  23.062  0.00  0.00    -0.273 OA
BRANCH  12  15
ATOM     15  CA  ILE A   5      -1.595  -2.861  24.908  0.00  0.00    +0.137 C 
BRANCH  15  16
ATOM     16  C   ILE A   5      -0.972  -2.849  26.327  0.00  0.00    +0.227 C 
ATOM     17  O   ILE A   5       0.256  -2.874  26.476  0.00  0.00    -0.286 OA
ENDBRANCH  15  16
BRANCH  15  18
ATOM     18  CB  ILE A   5      -2.152  -4.279  24.564  0.00  0.00    +0.026 C 
ATOM     19  CG2 ILE A   5      -2.941  -4.247  23.255  0.00  0.00    +0.002 C 
BRANCH  18  20
ATOM     20  CG1 ILE A   5      -1.022  -5.326  24.512  0.00  0.00    +0.002 C 
ATOM     21  CD1 ILE A   5      -1.482  -6.736  24.115  0.00  0.00    +0.000 C 
ENDBRANCH  18  20
ENDBRANCH  15  18
ENDBRANCH  12  15
ENDBRANCH  10  11
BRANCH  10  22
ATOM     22  CB  ASP A   4      -0.440  -0.067  20.972  0.00  0.00    +0.143 C 
BRANCH  22  23
ATOM     23  CG  ASP A   4       0.554   0.812  20.205  0.00  0.00    +0.367 C 
ATOM     24  OD2 ASP A   4       1.779   0.806  20.471  0.00  0.00    -0.246 OA
ATOM     25  OD1 ASP A   4       0.067   1.535  19.305  0.00  0.00    -0.246 OA
ENDBRANCH  22  23
ENDBRANCH  10  22
ENDBRANCH   7  10
ENDBRANCH   5   6
BRANCH   5  26
ATOM     26  CB  ASP A   3       1.900  -3.242  18.803  0.00  0.00    +0.143 C 
BRANCH  26  27
ATOM     27  CG  ASP A   3       0.851  -3.150  17.668  0.00  0.00    +0.367 C 
ATOM     28  OD2 ASP A   3       0.320  -4.209  17.252  0.00  0.00    -0.246 OA
ATOM     29  OD1 ASP A   3       0.570  -2.022  17.169  0.00  0.00    -0.246 OA
ENDBRANCH  26  27
ENDBRANCH   5  26
ENDBRANCH   3   5
BRANCH   1  30
ATOM     30  CA  TRP A   2       0.074  -7.517  20.355  0.00  0.00    +0.153 C 
BRANCH  30  32
ATOM     31  C   TYR A   1      -0.877  -8.055  18.179  0.00  0.00    +0.239 C 
ATOM     32  N   TRP A   2       0.180  -7.784  18.936  0.00  0.00    -0.297 N 
ATOM     33  H   TRP A   2       1.120  -7.763  18.492  0.00  0.00    +0.150 HD
ATOM     34  O   TYR A   1      -2.046  -8.028  18.590  0.00  0.00    -0.274 OA
BRANCH  31  35
ATOM     35  CA  TYR A   1      -0.579  -8.354  16.723  0.00  0.00    +0.149 C 
BRANCH  35  36
ATOM     36  N   TYR A   1      -1.449  -9.376  16.168  0.00  0.00    -0.238 NA
ATOM     37  H   TYR A   1      -2.468  -9.181  16.092  0.00  0.00    +0.142 HD
ENDBRANCH  35  36
BRANCH  35  38
ATOM     38  CB  TYR A   1      -0.735  -7.070  15.915  0.00  0.00    +0.053 C 
BRANCH  38  39
ATOM     39  CG  TYR A   1      -0.113  -7.145  14.540  0.00  0.00    -0.020 A 
ATOM     40  CD2 TYR A   1       1.134  -7.728  14.360  0.00  0.00    -0.001 A 
ATOM     41  CE2 TYR A   1       1.723  -7.793  13.108  0.00  0.00    +0.036 A 
ATOM     42  CZ  TYR A   1       1.070  -7.268  12.017  0.00  0.00    +0.134 A 
ATOM     43  CE1 TYR A   1      -0.165  -6.664  12.145  0.00  0.00    +0.036 A 
ATOM     44  CD1 TYR A   1      -0.759  -6.608  13.424  0.00  0.00    -0.001 A 
BRANCH  42  45
ATOM     45  OH  TYR A   1       1.687  -7.338  10.794  0.00  0.00    -0.506 OA
ATOM     46  HH  TYR A   1       2.550  -6.854  10.833  0.00  0.00    +0.292 HD
ENDBRANCH  42  45
ENDBRANCH  38  39
ENDBRANCH  35  38
ENDBRANCH  31  35
ENDBRANCH  30  32
BRANCH  30  47
ATOM     47  CB  TRP A   2       0.821  -8.595  21.138  0.00  0.00    +0.057 C 
BRANCH  47  48
ATOM     48  CG  TRP A   2       0.375  -9.986  20.820  0.00  0.00    -0.002 A 
ATOM     49  CD2 TRP A   2      -0.839 -10.608  21.245  0.00  0.00    +0.013 A 
ATOM     50  CE3 TRP A   2      -1.930 -10.186  22.020  0.00  0.00    +0.001 A 
ATOM     51  CZ3 TRP A   2      -2.992 -11.089  22.240  0.00  0.00    +0.000 A 
ATOM     52  CH2 TRP A   2      -2.957 -12.383  21.694  0.00  0.00    +0.001 A 
ATOM     53  CZ2 TRP A   2      -1.891 -12.819  20.928  0.00  0.00    +0.017 A 
ATOM     54  CE2 TRP A   2      -0.843 -11.922  20.710  0.00  0.00    +0.056 A 
ATOM     55  NE1 TRP A   2       0.323 -12.079  20.004  0.00  0.00    -0.352 N 
ATOM     56  HE1 TRP A   2       0.613 -12.942  19.501  0.00  0.00    +0.166 HD
ATOM     57  CD1 TRP A   2       1.047 -10.912  20.069  0.00  0.00    +0.068 A 
ENDBRANCH  47  48
ENDBRANCH  30  47
ENDBRANCH   1  30
TORSDOF 21
REMARK  Name = ../refined-set-2016/2xpk/2xpk_pocket.pdb
REMARK  226 active torsions:
REMARK  status: ('A' for Active; 'I' for Inactive)
REMARK    1  A    between atoms: _1  and  _3
REMARK    2  A    between atoms: _3  and  _4
REMARK    3  A    between atoms: _3  and  _6
REMARK    4  A    between atoms: _9  and  _11
REMARK    5  A    between atoms: _11  and  _12
REMARK    6  A    between atoms: _11  and  _14
REMARK    7  A    between atoms: _14  and  _15
REMARK    8  A    between atoms: _15  and  _16
REMARK    9  A    between atoms: _19  and  _21
REMARK   10  A    between atoms: _21  and  _22
REMARK   11  A    between atoms: _24  and  _26
REMARK   12  A    between atoms: _26  and  _27
REMARK   13  A    between atoms: _26  and  _29
REMARK   14  A    between atoms: _29  and  _30
REMARK   15  A    between atoms: _36  and  _38
REMARK   16  A    between atoms: _38  and  _39
REMARK   17  A    between atoms: _38  and  _41
REMARK   18  A    between atoms: _41  and  _42
REMARK   19  A    between atoms: _47  and  _48
REMARK   20  A    between atoms: _50  and  _52
REMARK   21  A    between atoms: _52  and  _53
REMARK   22  A    between atoms: _55  and  _57
REMARK   23  A    between atoms: _57  and  _58
REMARK   24  A    between atoms: _62  and  _63
REMARK   25  A    between atoms: _68  and  _70
REMARK   26  A    between atoms: _70  and  _71
REMARK   27  A    between atoms: _70  and  _73
REMARK   28  A    between atoms: _73  and  _74
REMARK   29  A    between atoms: _74  and  _75
REMARK   30  A    between atoms: _75  and  _76
REMARK   31  A    between atoms: _76  and  _77
REMARK   32  A    between atoms: _81  and  _83
REMARK   33  A    between atoms: _83  and  _84
REMARK   34  A    between atoms: _83  and  _86
REMARK   35  A    between atoms: _86  and  _87
REMARK   36  A    between atoms: _90  and  _92
REMARK   37  A    between atoms: _92  and  _93
REMARK   38  A    between atoms: _92  and  _95
REMARK   39  A    between atoms: _95  and  _96
REMARK   40  A    between atoms: _101  and  _103
REMARK   41  A    between atoms: _103  and  _104
REMARK   42  A    between atoms: _103  and  _106
REMARK   43  A    between atoms: _106  and  _107
REMARK   44  A    between atoms: _107  and  _108
REMARK   45  A    between atoms: _108  and  _109
REMARK   46  A    between atoms: _118  and  _120
REMARK   47  A    between atoms: _120  and  _121
REMARK   48  A    between atoms: _120  and  _123
REMARK   49  A    between atoms: _123  and  _124
REMARK   50  A    between atoms: _126  and  _128
REMARK   51  A    between atoms: _128  and  _129
REMARK   52  A    between atoms: _128  and  _131
REMARK   53  A    between atoms: _131  and  _132
REMARK   54  A    between atoms: _137  and  _138
REMARK   55  A    between atoms: _140  and  _142
REMARK   56  A    between atoms: _142  and  _143
REMARK   57  A    between atoms: _142  and  _145
REMARK   58  A    between atoms: _145  and  _146
REMARK   59  A    between atoms: _156  and  _158
REMARK   60  A    between atoms: _158  and  _159
REMARK   61  A    between atoms: _158  and  _161
REMARK   62  A    between atoms: _161  and  _162
REMARK   63  A    between atoms: _165  and  _167
REMARK   64  A    between atoms: _167  and  _168
REMARK   65  A    between atoms: _167  and  _170
REMARK   66  A    between atoms: _170  and  _171
REMARK   67  A    between atoms: _174  and  _176
REMARK   68  A    between atoms: _176  and  _177
REMARK   69  A    between atoms: _176  and  _179
REMARK   70  A    between atoms: _179  and  _180
REMARK   71  A    between atoms: _183  and  _185
REMARK   72  A    between atoms: _185  and  _186
REMARK   73  A    between atoms: _185  and  _188
REMARK   74  A    between atoms: _188  and  _189
REMARK   75  A    between atoms: _192  and  _194
REMARK   76  A    between atoms: _194  and  _195
REMARK   77  A    between atoms: _194  and  _197
REMARK   78  A    between atoms: _200  and  _201
REMARK   79  A    between atoms: _206  and  _208
REMARK   80  A    between atoms: _208  and  _209
REMARK   81  A    between atoms: _208  and  _211
REMARK   82  A    between atoms: _211  and  _212
REMARK   83  A    between atoms: _215  and  _217
REMARK   84  A    between atoms: _217  and  _218
REMARK   85  A    between atoms: _217  and  _220
REMARK   86  A    between atoms: _220  and  _221
REMARK   87  A    between atoms: _221  and  _222
REMARK   88  A    between atoms: _225  and  _227
REMARK   89  A    between atoms: _227  and  _228
REMARK   90  A    between atoms: _227  and  _230
REMARK   91  A    between atoms: _230  and  _231
REMARK   92  A    between atoms: _236  and  _237
REMARK   93  A    between atoms: _239  and  _241
REMARK   94  A    between atoms: _241  and  _242
REMARK   95  A    between atoms: _241  and  _244
REMARK   96  A    between atoms: _244  and  _245
REMARK   97  A    between atoms: _248  and  _250
REMARK   98  A    between atoms: _250  and  _251
REMARK   99  A    between atoms: _250  and  _253
REMARK  100  A    between atoms: _256  and  _258
REMARK  101  A    between atoms: _258  and  _259
REMARK  102  A    between atoms: _258  and  _261
REMARK  103  A    between atoms: _261  and  _262
REMARK  104  A    between atoms: _262  and  _263
REMARK  105  A    between atoms: _265  and  _267
REMARK  106  A    between atoms: _267  and  _268
REMARK  107  A    between atoms: _267  and  _270
REMARK  108  A    between atoms: _270  and  _271
REMARK  109  A    between atoms: _281  and  _283
REMARK  110  A    between atoms: _283  and  _284
REMARK  111  A    between atoms: _283  and  _286
REMARK  112  A    between atoms: _286  and  _287
REMARK  113  A    between atoms: _290  and  _292
REMARK  114  A    between atoms: _292  and  _293
REMARK  115  A    between atoms: _295  and  _297
REMARK  116  A    between atoms: _297  and  _298
REMARK  117  A    between atoms: _300  and  _302
REMARK  118  A    between atoms: _302  and  _303
REMARK  119  A    between atoms: _302  and  _305
REMARK  120  A    between atoms: _308  and  _310
REMARK  121  A    between atoms: _310  and  _311
REMARK  122  A    between atoms: _310  and  _313
REMARK  123  A    between atoms: _316  and  _318
REMARK  124  A    between atoms: _318  and  _319
REMARK  125  A    between atoms: _322  and  _324
REMARK  126  A    between atoms: _324  and  _325
REMARK  127  A    between atoms: _324  and  _327
REMARK  128  A    between atoms: _330  and  _332
REMARK  129  A    between atoms: _332  and  _333
REMARK  130  A    between atoms: _332  and  _335
REMARK  131  A    between atoms: _335  and  _336
REMARK  132  A    between atoms: _346  and  _348
REMARK  133  A    between atoms: _348  and  _349
REMARK  134  A    between atoms: _348  and  _351
REMARK  135  A    between atoms: _351  and  _352
REMARK  136  A    between atoms: _362  and  _364
REMARK  137  A    between atoms: _364  and  _365
REMARK  138  A    between atoms: _364  and  _367
REMARK  139  A    between atoms: _367  and  _368
REMARK  140  A    between atoms: _373  and  _375
REMARK  141  A    between atoms: _375  and  _376
REMARK  142  A    between atoms: _375  and  _378
REMARK  143  A    between atoms: _378  and  _379
REMARK  144  A    between atoms: _384  and  _385
REMARK  145  A    between atoms: _387  and  _389
REMARK  146  A    between atoms: _389  and  _390
REMARK  147  A    between atoms: _389  and  _392
REMARK  148  A    between atoms: _395  and  _397
REMARK  149  A    between atoms: _397  and  _398
REMARK  150  A    between atoms: _397  and  _400
REMARK  151  A    between atoms: _400  and  _401
REMARK  152  A    between atoms: _404  and  _406
REMARK  153  A    between atoms: _406  and  _407
REMARK  154  A    between atoms: _406  and  _409
REMARK  155  A    between atoms: _409  and  _410
REMARK  156  A    between atoms: _413  and  _415
REMARK  157  A    between atoms: _415  and  _416
REMARK  158  A    between atoms: _415  and  _418
REMARK  159  A    between atoms: _418  and  _419
REMARK  160  A    between atoms: _424  and  _425
REMARK  161  A    between atoms: _427  and  _429
REMARK  162  A    between atoms: _429  and  _430
REMARK  163  A    between atoms: _429  and  _432
REMARK  164  A    between atoms: _432  and  _433
REMARK  165  A    between atoms: _439  and  _441
REMARK  166  A    between atoms: _441  and  _442
REMARK  167  A    between atoms: _441  and  _444
REMARK  168  A    between atoms: _444  and  _445
REMARK  169  A    between atoms: _448  and  _450
REMARK  170  A    between atoms: _450  and  _451
REMARK  171  A    between atoms: _450  and  _453
REMARK  172  A    between atoms: _453  and  _454
REMARK  173  A    between atoms: _460  and  _461
REMARK  174  A    between atoms: _466  and  _468
REMARK  175  A    between atoms: _468  and  _469
REMARK  176  A    between atoms: _468  and  _471
REMARK  177  A    between atoms: _471  and  _472
REMARK  178  A    between atoms: _477  and  _479
REMARK  179  A    between atoms: _479  and  _480
REMARK  180  A    between atoms: _479  and  _482
REMARK  181  A    between atoms: _482  and  _483
REMARK  182  A    between atoms: _493  and  _495
REMARK  183  A    between atoms: _495  and  _496
REMARK  184  A    between atoms: _499  and  _501
REMARK  185  A    between atoms: _501  and  _502
REMARK  186  A    between atoms: _501  and  _504
REMARK  187  A    between atoms: _504  and  _505
REMARK  188  A    between atoms: _508  and  _510
REMARK  189  A    between atoms: _510  and  _511
REMARK  190  A    between atoms: _510  and  _513
REMARK  191  A    between atoms: _513  and  _514
REMARK  192  A    between atoms: _516  and  _518
REMARK  193  A    between atoms: _518  and  _519
REMARK  194  A    between atoms: _518  and  _521
REMARK  195  A    between atoms: _521  and  _522
REMARK  196  A    between atoms: _524  and  _526
REMARK  197  A    between atoms: _526  and  _527
REMARK  198  A    between atoms: _526  and  _529
REMARK  199  A    between atoms: _529  and  _530
REMARK  200  A    between atoms: _530  and  _531
REMARK  201  A    between atoms: _531  and  _532
REMARK  202  A    between atoms: _532  and  _533
REMARK  203  A    between atoms: _537  and  _539
REMARK  204  A    between atoms: _539  and  _540
REMARK  205  A    between atoms: _539  and  _542
REMARK  206  A    between atoms: _542  and  _543
REMARK  207  A    between atoms: _549  and  _551
REMARK  208  A    between atoms: _551  and  _552
REMARK  209  A    between atoms: _551  and  _554
REMARK  210  A    between atoms: _554  and  _555
REMARK  211  A    between atoms: _558  and  _560
REMARK  212  A    between atoms: _560  and  _561
REMARK  213  A    between atoms: _560  and  _563
REMARK  214  A    between atoms: _563  and  _564
REMARK  215  A    between atoms: _567  and  _569
REMARK  216  A    between atoms: _569  and  _570
REMARK  217  A    between atoms: _569  and  _572
REMARK  218  A    between atoms: _572  and  _573
REMARK  219  A    between atoms: _576  and  _578
REMARK  220  A    between atoms: _578  and  _579
REMARK  221  A    between atoms: _578  and  _581
REMARK  222  A    between atoms: _581  and  _582
REMARK  223  A    between atoms: _585  and  _587
REMARK  224  A    between atoms: _587  and  _588
REMARK  225  A    between atoms: _587  and  _590
REMARK  226  A    between atoms: _590  and  _591
REMARK                            x       y       z     vdW  Elec       q    Type
REMARK                         _______ _______ _______ _____ _____    ______ ____
ROOT
ATOM      1  C   THR A   4       5.306  -5.271  23.211  0.00  0.00    +0.243 C 
ATOM      2  N   GLU A   5       6.462  -5.902  23.439  0.00  0.00    -0.297 N 
ATOM      3  H   GLU A   5       6.439  -6.906  23.708  0.00  0.00    +0.150 HD
ATOM      4  O   THR A   4       5.200  -4.033  23.136  0.00  0.00    -0.273 OA
ENDROOT
BRANCH   2   5
ATOM      5  CA  GLU A   5       7.757  -5.234  23.324  0.00  0.00    +0.149 C 
BRANCH   5   6
ATOM      6  C   GLU A   5       8.305  -5.417  21.906  0.00  0.00    +0.241 C 
ATOM      7  O   GLU A   5       8.698  -6.508  21.529  0.00  0.00    -0.273 OA
ATOM      8  N   TYR A   6       8.330  -4.347  21.119  0.00  0.00    -0.297 N 
ATOM      9  H   TYR A   6       8.126  -3.404  21.506  0.00  0.00    +0.150 HD
BRANCH   8  10
ATOM     10  CA  TYR A   6       8.648  -4.513  19.698  0.00  0.00    +0.153 C 
BRANCH  10  11
ATOM     11  C   TYR A   6       9.763  -3.629  19.204  0.00  0.00    +0.241 C 
ATOM     12  N   ASP A   7      10.358  -2.850  20.090  0.00  0.00    -0.298 N 
ATOM     13  H   ASP A   7      10.000  -2.819  21.066  0.00  0.00    +0.150 HD
ATOM     14  O   TYR A   6      10.080  -3.647  18.013  0.00  0.00    -0.273 OA
BRANCH  12  15
ATOM     15  CA  ASP A   7      11.517  -2.027  19.720  0.00  0.00    +0.148 C 
BRANCH  15  16
ATOM     16  C   ASP A   7      12.626  -2.314  20.714  0.00  0.00    +0.227 C 
ATOM     17  O   ASP A   7      12.339  -2.695  21.863  0.00  0.00    -0.286 OA
ENDBRANCH  15  16
BRANCH  15  18
ATOM     18  CB  ASP A   7      11.165  -0.543  19.709  0.00  0.00    +0.142 C 
BRANCH  18  19
ATOM     19  CG  ASP A   7      11.013   0.040  21.102  0.00  0.00    +0.367 C 
ATOM     20  OD2 ASP A   7       9.942  -0.160  21.726  0.00  0.00    -0.246 OA
ATOM     21  OD1 ASP A   7      11.964   0.710  21.584  0.00  0.00    -0.246 OA
ENDBRANCH  18  19
ENDBRANCH  15  18
ENDBRANCH  12  15
ENDBRANCH  10  11
BRANCH  10  22
ATOM     22  CB  TYR A   6       7.402  -4.358  18.806  0.00  0.00    +0.055 C 
BRANCH  22  23
ATOM     23  CG  TYR A   6       6.679  -3.072  19.068  0.00  0.00    -0.020 A 
ATOM     24  CD2 TYR A   6       5.518  -3.046  19.832  0.00  0.00    -0.001 A 
ATOM     25  CE2 TYR A   6       4.871  -1.833  20.094  0.00  0.00    +0.036 A 
ATOM     26  CZ  TYR A   6       5.395  -0.633  19.575  0.00  0.00    +0.134 A 
ATOM     27  CE1 TYR A   6       6.549  -0.653  18.820  0.00  0.00    +0.036 A 
ATOM     28  CD1 TYR A   6       7.183  -1.861  18.573  0.00  0.00    -0.001 A 
BRANCH  26  29
ATOM     29  OH  TYR A   6       4.772   0.599  19.825  0.00  0.00    -0.506 OA
ATOM     30  HH  TYR A   6       3.962   0.452  20.375  0.00  0.00    +0.292 HD
ENDBRANCH  26  29
ENDBRANCH  22  23
ENDBRANCH  10  22
ENDBRANCH   8  10
ENDBRANCH   5   6
BRANCH   5  31
ATOM     31  CB  GLU A   5       8.749  -5.786  24.352  0.00  0.00    +0.041 C 
BRANCH  31  32
ATOM     32  CG  GLU A   5       8.361  -5.503  25.807  0.00  0.00    +0.116 C 
BRANCH  32  33
ATOM     33  CD  GLU A   5       9.290  -6.204  26.799  0.00  0.00    +0.365 C 
ATOM     34  OE2 GLU A   5       9.113  -6.014  28.018  0.00  0.00    -0.246 OA
ATOM     35  OE1 GLU A   5      10.205  -6.941  26.358  0.00  0.00    -0.246 OA
ENDBRANCH  32  33
ENDBRANCH  31  32
ENDBRANCH   5  31
ENDBRANCH   2   5
BRANCH   1  36
ATOM     36  CA  THR A   4       4.076  -6.186  23.038  0.00  0.00    +0.176 C 
BRANCH  36  38
ATOM     37  C   PRO A   3       4.895  -7.484  21.147  0.00  0.00    +0.241 C 
ATOM     38  N   THR A   4       4.489  -7.452  22.416  0.00  0.00    -0.295 N 
ATOM     39  H   THR A   4       4.464  -8.331  22.971  0.00  0.00    +0.150 HD
ATOM     40  O   PRO A   3       4.920  -6.479  20.452  0.00  0.00    -0.273 OA
BRANCH  37  43
ATOM     41  C   CYS A   2       4.401  -8.652  18.246  0.00  0.00    +0.245 C 
ATOM     42  N   PRO A   3       5.467  -8.713  19.079  0.00  0.00    -0.272 N 
ATOM     43  CA  PRO A   3       5.330  -8.817  20.536  0.00  0.00    +0.152 C 
ATOM     44  CB  PRO A   3       6.748  -9.167  21.005  0.00  0.00    +0.031 C 
ATOM     45  CG  PRO A   3       7.650  -9.108  19.781  0.00  0.00    +0.024 C 
ATOM     46  CD  PRO A   3       6.866  -8.497  18.669  0.00  0.00    +0.094 C 
ATOM     47  O   CYS A   2       3.214  -8.710  18.639  0.00  0.00    -0.273 OA
BRANCH  41  48
ATOM     48  CA  CYS A   2       4.688  -8.493  16.765  0.00  0.00    +0.161 C 
BRANCH  48  50
ATOM     49  C   THR A   1       4.046 -10.066  15.077  0.00  0.00    +0.241 C 
ATOM     50  N   CYS A   2       3.694  -9.283  16.081  0.00  0.00    -0.296 N 
ATOM     51  H   CYS A   2       2.699  -9.236  16.379  0.00  0.00    +0.150 HD
ATOM     52  O   THR A   1       5.127  -9.932  14.453  0.00  0.00    -0.274 OA
BRANCH  49  53
ATOM     53  CA  THR A   1       3.062 -11.194  14.755  0.00  0.00    +0.172 C 
BRANCH  53  54
ATOM     54  N   THR A   1       3.419 -11.766  13.474  0.00  0.00    -0.236 NA
ATOM     55  H   THR A   1       4.399 -11.657  13.142  0.00  0.00    +0.142 HD
ENDBRANCH  53  54
BRANCH  53  56
ATOM     56  CB  THR A   1       3.186 -12.264  15.889  0.00  0.00    +0.135 C 
ATOM     57  CG2 THR A   1       4.655 -12.620  16.169  0.00  0.00    +0.034 C 
BRANCH  56  58
ATOM     58  OG1 THR A   1       2.612 -11.765  17.102  0.00  0.00    -0.383 OA
ATOM     59  HG1 THR A   1       1.655 -11.559  16.953  0.00  0.00    +0.210 HD
ENDBRANCH  56  58
ENDBRANCH  53  56
ENDBRANCH  49  53
ENDBRANCH  48  50
BRANCH  48  60
ATOM     60  CB  CYS A   2       4.591  -7.030  16.345  0.00  0.00    +0.098 C 
ATOM     61  SG  CYS A   2       3.136  -6.207  16.999  0.00  0.00    -0.080 S 
ENDBRANCH  48  60
ENDBRANCH  41  48
ENDBRANCH  37  43
ENDBRANCH  36  38
BRANCH  36  62
ATOM     62  CB  THR A   4       3.360  -6.396  24.373  0.00  0.00    +0.137 C 
ATOM     63  CG2 THR A   4       2.806  -5.089  24.898  0.00  0.00    +0.034 C 
BRANCH  62  64
ATOM     64  OG1 THR A   4       2.277  -7.313  24.199  0.00  0.00    -0.382 OA
ATOM     65  HG1 THR A   4       1.639  -6.946  23.537  0.00  0.00    +0.210 HD
ENDBRANCH  62  64
ENDBRANCH  36  62
ENDBRANCH   1  36
TORSDOF 26
REMARK  Name = ../refined-set-2016/2xpk/2xpk_pocket.pdb
REMARK  226 active torsions:
REMARK  status: ('A' for Active; 'I' for Inactive)
REMARK    1  A    between atoms: _1  and  _3
REMARK    2  A    between atoms: _3  and  _4
REMARK    3  A    between atoms: _3  and  _6
REMARK    4  A    between atoms: _9  and  _11
REMARK    5  A    between atoms: _11  and  _12
REMARK    6  A    between atoms: _11  and  _14
REMARK    7  A    between atoms: _14  and  _15
REMARK    8  A    between atoms: _15  and  _16
REMARK    9  A    between atoms: _19  and  _21
REMARK   10  A    between atoms: _21  and  _22
REMARK   11  A    between atoms: _24  and  _26
REMARK   12  A    between atoms: _26  and  _27
REMARK   13  A    between atoms: _26  and  _29
REMARK   14  A    between atoms: _29  and  _30
REMARK   15  A    between atoms: _36  and  _38
REMARK   16  A    between atoms: _38  and  _39
REMARK   17  A    between atoms: _38  and  _41
REMARK   18  A    between atoms: _41  and  _42
REMARK   19  A    between atoms: _47  and  _48
REMARK   20  A    between atoms: _50  and  _52
REMARK   21  A    between atoms: _52  and  _53
REMARK   22  A    between atoms: _55  and  _57
REMARK   23  A    between atoms: _57  and  _58
REMARK   24  A    between atoms: _62  and  _63
REMARK   25  A    between atoms: _68  and  _70
REMARK   26  A    between atoms: _70  and  _71
REMARK   27  A    between atoms: _70  and  _73
REMARK   28  A    between atoms: _73  and  _74
REMARK   29  A    between atoms: _74  and  _75
REMARK   30  A    between atoms: _75  and  _76
REMARK   31  A    between atoms: _76  and  _77
REMARK   32  A    between atoms: _81  and  _83
REMARK   33  A    between atoms: _83  and  _84
REMARK   34  A    between atoms: _83  and  _86
REMARK   35  A    between atoms: _86  and  _87
REMARK   36  A    between atoms: _90  and  _92
REMARK   37  A    between atoms: _92  and  _93
REMARK   38  A    between atoms: _92  and  _95
REMARK   39  A    between atoms: _95  and  _96
REMARK   40  A    between atoms: _101  and  _103
REMARK   41  A    between atoms: _103  and  _104
REMARK   42  A    between atoms: _103  and  _106
REMARK   43  A    between atoms: _106  and  _107
REMARK   44  A    between atoms: _107  and  _108
REMARK   45  A    between atoms: _108  and  _109
REMARK   46  A    between atoms: _118  and  _120
REMARK   47  A    between atoms: _120  and  _121
REMARK   48  A    between atoms: _120  and  _123
REMARK   49  A    between atoms: _123  and  _124
REMARK   50  A    between atoms: _126  and  _128
REMARK   51  A    between atoms: _128  and  _129
REMARK   52  A    between atoms: _128  and  _131
REMARK   53  A    between atoms: _131  and  _132
REMARK   54  A    between atoms: _137  and  _138
REMARK   55  A    between atoms: _140  and  _142
REMARK   56  A    between atoms: _142  and  _143
REMARK   57  A    between atoms: _142  and  _145
REMARK   58  A    between atoms: _145  and  _146
REMARK   59  A    between atoms: _156  and  _158
REMARK   60  A    between atoms: _158  and  _159
REMARK   61  A    between atoms: _158  and  _161
REMARK   62  A    between atoms: _161  and  _162
REMARK   63  A    between atoms: _165  and  _167
REMARK   64  A    between atoms: _167  and  _168
REMARK   65  A    between atoms: _167  and  _170
REMARK   66  A    between atoms: _170  and  _171
REMARK   67  A    between atoms: _174  and  _176
REMARK   68  A    between atoms: _176  and  _177
REMARK   69  A    between atoms: _176  and  _179
REMARK   70  A    between atoms: _179  and  _180
REMARK   71  A    between atoms: _183  and  _185
REMARK   72  A    between atoms: _185  and  _186
REMARK   73  A    between atoms: _185  and  _188
REMARK   74  A    between atoms: _188  and  _189
REMARK   75  A    between atoms: _192  and  _194
REMARK   76  A    between atoms: _194  and  _195
REMARK   77  A    between atoms: _194  and  _197
REMARK   78  A    between atoms: _200  and  _201
REMARK   79  A    between atoms: _206  and  _208
REMARK   80  A    between atoms: _208  and  _209
REMARK   81  A    between atoms: _208  and  _211
REMARK   82  A    between atoms: _211  and  _212
REMARK   83  A    between atoms: _215  and  _217
REMARK   84  A    between atoms: _217  and  _218
REMARK   85  A    between atoms: _217  and  _220
REMARK   86  A    between atoms: _220  and  _221
REMARK   87  A    between atoms: _221  and  _222
REMARK   88  A    between atoms: _225  and  _227
REMARK   89  A    between atoms: _227  and  _228
REMARK   90  A    between atoms: _227  and  _230
REMARK   91  A    between atoms: _230  and  _231
REMARK   92  A    between atoms: _236  and  _237
REMARK   93  A    between atoms: _239  and  _241
REMARK   94  A    between atoms: _241  and  _242
REMARK   95  A    between atoms: _241  and  _244
REMARK   96  A    between atoms: _244  and  _245
REMARK   97  A    between atoms: _248  and  _250
REMARK   98  A    between atoms: _250  and  _251
REMARK   99  A    between atoms: _250  and  _253
REMARK  100  A    between atoms: _256  and  _258
REMARK  101  A    between atoms: _258  and  _259
REMARK  102  A    between atoms: _258  and  _261
REMARK  103  A    between atoms: _261  and  _262
REMARK  104  A    between atoms: _262  and  _263
REMARK  105  A    between atoms: _265  and  _267
REMARK  106  A    between atoms: _267  and  _268
REMARK  107  A    between atoms: _267  and  _270
REMARK  108  A    between atoms: _270  and  _271
REMARK  109  A    between atoms: _281  and  _283
REMARK  110  A    between atoms: _283  and  _284
REMARK  111  A    between atoms: _283  and  _286
REMARK  112  A    between atoms: _286  and  _287
REMARK  113  A    between atoms: _290  and  _292
REMARK  114  A    between atoms: _292  and  _293
REMARK  115  A    between atoms: _295  and  _297
REMARK  116  A    between atoms: _297  and  _298
REMARK  117  A    between atoms: _300  and  _302
REMARK  118  A    between atoms: _302  and  _303
REMARK  119  A    between atoms: _302  and  _305
REMARK  120  A    between atoms: _308  and  _310
REMARK  121  A    between atoms: _310  and  _311
REMARK  122  A    between atoms: _310  and  _313
REMARK  123  A    between atoms: _316  and  _318
REMARK  124  A    between atoms: _318  and  _319
REMARK  125  A    between atoms: _322  and  _324
REMARK  126  A    between atoms: _324  and  _325
REMARK  127  A    between atoms: _324  and  _327
REMARK  128  A    between atoms: _330  and  _332
REMARK  129  A    between atoms: _332  and  _333
REMARK  130  A    between atoms: _332  and  _335
REMARK  131  A    between atoms: _335  and  _336
REMARK  132  A    between atoms: _346  and  _348
REMARK  133  A    between atoms: _348  and  _349
REMARK  134  A    between atoms: _348  and  _351
REMARK  135  A    between atoms: _351  and  _352
REMARK  136  A    between atoms: _362  and  _364
REMARK  137  A    between atoms: _364  and  _365
REMARK  138  A    between atoms: _364  and  _367
REMARK  139  A    between atoms: _367  and  _368
REMARK  140  A    between atoms: _373  and  _375
REMARK  141  A    between atoms: _375  and  _376
REMARK  142  A    between atoms: _375  and  _378
REMARK  143  A    between atoms: _378  and  _379
REMARK  144  A    between atoms: _384  and  _385
REMARK  145  A    between atoms: _387  and  _389
REMARK  146  A    between atoms: _389  and  _390
REMARK  147  A    between atoms: _389  and  _392
REMARK  148  A    between atoms: _395  and  _397
REMARK  149  A    between atoms: _397  and  _398
REMARK  150  A    between atoms: _397  and  _400
REMARK  151  A    between atoms: _400  and  _401
REMARK  152  A    between atoms: _404  and  _406
REMARK  153  A    between atoms: _406  and  _407
REMARK  154  A    between atoms: _406  and  _409
REMARK  155  A    between atoms: _409  and  _410
REMARK  156  A    between atoms: _413  and  _415
REMARK  157  A    between atoms: _415  and  _416
REMARK  158  A    between atoms: _415  and  _418
REMARK  159  A    between atoms: _418  and  _419
REMARK  160  A    between atoms: _424  and  _425
REMARK  161  A    between atoms: _427  and  _429
REMARK  162  A    between atoms: _429  and  _430
REMARK  163  A    between atoms: _429  and  _432
REMARK  164  A    between atoms: _432  and  _433
REMARK  165  A    between atoms: _439  and  _441
REMARK  166  A    between atoms: _441  and  _442
REMARK  167  A    between atoms: _441  and  _444
REMARK  168  A    between atoms: _444  and  _445
REMARK  169  A    between atoms: _448  and  _450
REMARK  170  A    between atoms: _450  and  _451
REMARK  171  A    between atoms: _450  and  _453
REMARK  172  A    between atoms: _453  and  _454
REMARK  173  A    between atoms: _460  and  _461
REMARK  174  A    between atoms: _466  and  _468
REMARK  175  A    between atoms: _468  and  _469
REMARK  176  A    between atoms: _468  and  _471
REMARK  177  A    between atoms: _471  and  _472
REMARK  178  A    between atoms: _477  and  _479
REMARK  179  A    between atoms: _479  and  _480
REMARK  180  A    between atoms: _479  and  _482
REMARK  181  A    between atoms: _482  and  _483
REMARK  182  A    between atoms: _493  and  _495
REMARK  183  A    between atoms: _495  and  _496
REMARK  184  A    between atoms: _499  and  _501
REMARK  185  A    between atoms: _501  and  _502
REMARK  186  A    between atoms: _501  and  _504
REMARK  187  A    between atoms: _504  and  _505
REMARK  188  A    between atoms: _508  and  _510
REMARK  189  A    between atoms: _510  and  _511
REMARK  190  A    between atoms: _510  and  _513
REMARK  191  A    between atoms: _513  and  _514
REMARK  192  A    between atoms: _516  and  _518
REMARK  193  A    between atoms: _518  and  _519
REMARK  194  A    between atoms: _518  and  _521
REMARK  195  A    between atoms: _521  and  _522
REMARK  196  A    between atoms: _524  and  _526
REMARK  197  A    between atoms: _526  and  _527
REMARK  198  A    between atoms: _526  and  _529
REMARK  199  A    between atoms: _529  and  _530
REMARK  200  A    between atoms: _530  and  _531
REMARK  201  A    between atoms: _531  and  _532
REMARK  202  A    between atoms: _532  and  _533
REMARK  203  A    between atoms: _537  and  _539
REMARK  204  A    between atoms: _539  and  _540
REMARK  205  A    between atoms: _539  and  _542
REMARK  206  A    between atoms: _542  and  _543
REMARK  207  A    between atoms: _549  and  _551
REMARK  208  A    between atoms: _551  and  _552
REMARK  209  A    between atoms: _551  and  _554
REMARK  210  A    between atoms: _554  and  _555
REMARK  211  A    between atoms: _558  and  _560
REMARK  212  A    between atoms: _560  and  _561
REMARK  213  A    between atoms: _560  and  _563
REMARK  214  A    between atoms: _563  and  _564
REMARK  215  A    between atoms: _567  and  _569
REMARK  216  A    between atoms: _569  and  _570
REMARK  217  A    between atoms: _569  and  _572
REMARK  218  A    between atoms: _572  and  _573
REMARK  219  A    between atoms: _576  and  _578
REMARK  220  A    between atoms: _578  and  _579
REMARK  221  A    between atoms: _578  and  _581
REMARK  222  A    between atoms: _581  and  _582
REMARK  223  A    between atoms: _585  and  _587
REMARK  224  A    between atoms: _587  and  _588
REMARK  225  A    between atoms: _587  and  _590
REMARK  226  A    between atoms: _590  and  _591
REMARK                            x       y       z     vdW  Elec       q    Type
REMARK                         _______ _______ _______ _____ _____    ______ ____
ROOT
ATOM      1  CA  TRP A   3      10.073  -5.222  15.281  0.00  0.00    +0.153 C 
ENDROOT
BRANCH   1   4
ATOM      2  C   MET A   2       8.741  -7.153  14.670  0.00  0.00    +0.241 C 
ATOM      3  O   MET A   2       8.369  -7.402  15.835  0.00  0.00    -0.273 OA
ATOM      4  N   TRP A   3       9.630  -6.220  14.344  0.00  0.00    -0.297 N 
ATOM      5  H   TRP A   3      10.018  -6.211  13.379  0.00  0.00    +0.150 HD
BRANCH   2   6
ATOM      6  CA  MET A   2       8.187  -7.927  13.504  0.00  0.00    +0.149 C 
BRANCH   6   8
ATOM      7  C   VAL A   1       8.662 -10.306  13.805  0.00  0.00    +0.238 C 
ATOM      8  N   MET A   2       7.844  -9.270  13.951  0.00  0.00    -0.297 N 
ATOM      9  H   MET A   2       6.920  -9.424  14.403  0.00  0.00    +0.150 HD
ATOM     10  O   VAL A   1       9.751 -10.234  13.250  0.00  0.00    -0.274 OA
BRANCH   7  11
ATOM     11  CA  VAL A   1       8.168 -11.628  14.337  0.00  0.00    +0.145 C 
BRANCH  11  12
ATOM     12  CB  VAL A   1       9.003 -12.055  15.554  0.00  0.00    +0.025 C 
ATOM     13  CG2 VAL A   1       8.734 -11.166  16.761  0.00  0.00    +0.002 C 
ATOM     14  CG1 VAL A   1       8.704 -13.522  15.912  0.00  0.00    +0.002 C 
ENDBRANCH  11  12
BRANCH  11  15
ATOM     15  N   VAL A   1       8.258 -12.605  13.263  0.00  0.00    -0.238 NA
ATOM     16  H   VAL A   1       9.198 -12.871  12.907  0.00  0.00    +0.142 HD
ENDBRANCH  11  15
ENDBRANCH   7  11
ENDBRANCH   6   8
BRANCH   6  17
ATOM     17  CB  MET A   2       6.952  -7.180  12.977  0.00  0.00    +0.041 C 
BRANCH  17  18
ATOM     18  CG  MET A   2       6.193  -7.968  11.949  0.00  0.00    +0.060 C 
BRANCH  18  19
ATOM     19  SD  MET A   2       4.983  -7.009  11.079  0.00  0.00    -0.139 S 
ATOM     20  CE  MET A   2       5.953  -6.397   9.700  0.00  0.00    +0.069 C 
ENDBRANCH  18  19
ENDBRANCH  17  18
ENDBRANCH   6  17
ENDBRANCH   2   6
ENDBRANCH   1   4
BRANCH   1  21
ATOM     21  C   TRP A   3      10.448  -3.957  14.489  0.00  0.00    +0.241 C 
ATOM     22  N   THR A   4      10.579  -2.834  15.182  0.00  0.00    -0.295 N 
ATOM     23  H   THR A   4      10.658  -2.887  16.218  0.00  0.00    +0.150 HD
ATOM     24  O   TRP A   3      10.587  -4.001  13.272  0.00  0.00    -0.273 OA
BRANCH  22  25
ATOM     25  CA  THR A   4      10.616  -1.533  14.540  0.00  0.00    +0.176 C 
BRANCH  25  26
ATOM     26  C   THR A   4      12.018  -0.959  14.502  0.00  0.00    +0.243 C 
ATOM     27  N   GLY A   5      12.963  -1.628  15.176  0.00  0.00    -0.296 N 
ATOM     28  H   GLY A   5      12.704  -2.512  15.659  0.00  0.00    +0.150 HD
ATOM     29  O   THR A   4      12.216   0.112  13.911  0.00  0.00    -0.273 OA
BRANCH  27  30
ATOM     30  CA  GLY A   5      14.342  -1.161  15.257  0.00  0.00    +0.163 C 
BRANCH  30  31
ATOM     31  C   GLY A   5      14.741  -0.807  16.675  0.00  0.00    +0.229 C 
ATOM     32  O   GLY A   5      14.132  -1.296  17.618  0.00  0.00    -0.286 OA
ENDBRANCH  30  31
ENDBRANCH  27  30
ENDBRANCH  25  26
BRANCH  25  33
ATOM     33  CB  THR A   4       9.764  -0.516  15.323  0.00  0.00    +0.137 C 
ATOM     34  CG2 THR A   4       8.309  -0.861  15.232  0.00  0.00    +0.034 C 
BRANCH  33  35
ATOM     35  OG1 THR A   4      10.180  -0.507  16.705  0.00  0.00    -0.382 OA
ATOM     36  HG1 THR A   4      11.135  -0.251  16.759  0.00  0.00    +0.210 HD
ENDBRANCH  33  35
ENDBRANCH  25  33
ENDBRANCH  22  25
ENDBRANCH   1  21
BRANCH   1  37
ATOM     37  CB  TRP A   3      11.183  -5.793  16.181  0.00  0.00    +0.057 C 
BRANCH  37  38
ATOM     38  CG  TRP A   3      12.570  -5.264  16.034  0.00  0.00    -0.002 A 
ATOM     39  CD1 TRP A   3      13.264  -4.536  16.961  0.00  0.00    +0.068 A 
ATOM     40  NE1 TRP A   3      14.522  -4.239  16.502  0.00  0.00    -0.352 N 
ATOM     41  HE1 TRP A   3      15.244  -3.694  17.016  0.00  0.00    +0.166 HD
ATOM     42  CE2 TRP A   3      14.667  -4.781  15.252  0.00  0.00    +0.056 A 
ATOM     43  CZ2 TRP A   3      15.767  -4.756  14.382  0.00  0.00    +0.017 A 
ATOM     44  CH2 TRP A   3      15.641  -5.401  13.179  0.00  0.00    +0.001 A 
ATOM     45  CZ3 TRP A   3      14.449  -6.062  12.822  0.00  0.00    +0.000 A 
ATOM     46  CE3 TRP A   3      13.336  -6.090  13.694  0.00  0.00    +0.001 A 
ATOM     47  CD2 TRP A   3      13.447  -5.439  14.929  0.00  0.00    +0.013 A 
ENDBRANCH  37  38
ENDBRANCH   1  37
TORSDOF 18
REMARK  Name = ../refined-set-2016/2xpk/2xpk_pocket.pdb
REMARK  226 active torsions:
REMARK  status: ('A' for Active; 'I' for Inactive)
REMARK    1  A    between atoms: _1  and  _3
REMARK    2  A    between atoms: _3  and  _4
REMARK    3  A    between atoms: _3  and  _6
REMARK    4  A    between atoms: _9  and  _11
REMARK    5  A    between atoms: _11  and  _12
REMARK    6  A    between atoms: _11  and  _14
REMARK    7  A    between atoms: _14  and  _15
REMARK    8  A    between atoms: _15  and  _16
REMARK    9  A    between atoms: _19  and  _21
REMARK   10  A    between atoms: _21  and  _22
REMARK   11  A    between atoms: _24  and  _26
REMARK   12  A    between atoms: _26  and  _27
REMARK   13  A    between atoms: _26  and  _29
REMARK   14  A    between atoms: _29  and  _30
REMARK   15  A    between atoms: _36  and  _38
REMARK   16  A    between atoms: _38  and  _39
REMARK   17  A    between atoms: _38  and  _41
REMARK   18  A    between atoms: _41  and  _42
REMARK   19  A    between atoms: _47  and  _48
REMARK   20  A    between atoms: _50  and  _52
REMARK   21  A    between atoms: _52  and  _53
REMARK   22  A    between atoms: _55  and  _57
REMARK   23  A    between atoms: _57  and  _58
REMARK   24  A    between atoms: _62  and  _63
REMARK   25  A    between atoms: _68  and  _70
REMARK   26  A    between atoms: _70  and  _71
REMARK   27  A    between atoms: _70  and  _73
REMARK   28  A    between atoms: _73  and  _74
REMARK   29  A    between atoms: _74  and  _75
REMARK   30  A    between atoms: _75  and  _76
REMARK   31  A    between atoms: _76  and  _77
REMARK   32  A    between atoms: _81  and  _83
REMARK   33  A    between atoms: _83  and  _84
REMARK   34  A    between atoms: _83  and  _86
REMARK   35  A    between atoms: _86  and  _87
REMARK   36  A    between atoms: _90  and  _92
REMARK   37  A    between atoms: _92  and  _93
REMARK   38  A    between atoms: _92  and  _95
REMARK   39  A    between atoms: _95  and  _96
REMARK   40  A    between atoms: _101  and  _103
REMARK   41  A    between atoms: _103  and  _104
REMARK   42  A    between atoms: _103  and  _106
REMARK   43  A    between atoms: _106  and  _107
REMARK   44  A    between atoms: _107  and  _108
REMARK   45  A    between atoms: _108  and  _109
REMARK   46  A    between atoms: _118  and  _120
REMARK   47  A    between atoms: _120  and  _121
REMARK   48  A    between atoms: _120  and  _123
REMARK   49  A    between atoms: _123  and  _124
REMARK   50  A    between atoms: _126  and  _128
REMARK   51  A    between atoms: _128  and  _129
REMARK   52  A    between atoms: _128  and  _131
REMARK   53  A    between atoms: _131  and  _132
REMARK   54  A    between atoms: _137  and  _138
REMARK   55  A    between atoms: _140  and  _142
REMARK   56  A    between atoms: _142  and  _143
REMARK   57  A    between atoms: _142  and  _145
REMARK   58  A    between atoms: _145  and  _146
REMARK   59  A    between atoms: _156  and  _158
REMARK   60  A    between atoms: _158  and  _159
REMARK   61  A    between atoms: _158  and  _161
REMARK   62  A    between atoms: _161  and  _162
REMARK   63  A    between atoms: _165  and  _167
REMARK   64  A    between atoms: _167  and  _168
REMARK   65  A    between atoms: _167  and  _170
REMARK   66  A    between atoms: _170  and  _171
REMARK   67  A    between atoms: _174  and  _176
REMARK   68  A    between atoms: _176  and  _177
REMARK   69  A    between atoms: _176  and  _179
REMARK   70  A    between atoms: _179  and  _180
REMARK   71  A    between atoms: _183  and  _185
REMARK   72  A    between atoms: _185  and  _186
REMARK   73  A    between atoms: _185  and  _188
REMARK   74  A    between atoms: _188  and  _189
REMARK   75  A    between atoms: _192  and  _194
REMARK   76  A    between atoms: _194  and  _195
REMARK   77  A    between atoms: _194  and  _197
REMARK   78  A    between atoms: _200  and  _201
REMARK   79  A    between atoms: _206  and  _208
REMARK   80  A    between atoms: _208  and  _209
REMARK   81  A    between atoms: _208  and  _211
REMARK   82  A    between atoms: _211  and  _212
REMARK   83  A    between atoms: _215  and  _217
REMARK   84  A    between atoms: _217  and  _218
REMARK   85  A    between atoms: _217  and  _220
REMARK   86  A    between atoms: _220  and  _221
REMARK   87  A    between atoms: _221  and  _222
REMARK   88  A    between atoms: _225  and  _227
REMARK   89  A    between atoms: _227  and  _228
REMARK   90  A    between atoms: _227  and  _230
REMARK   91  A    between atoms: _230  and  _231
REMARK   92  A    between atoms: _236  and  _237
REMARK   93  A    between atoms: _239  and  _241
REMARK   94  A    between atoms: _241  and  _242
REMARK   95  A    between atoms: _241  and  _244
REMARK   96  A    between atoms: _244  and  _245
REMARK   97  A    between atoms: _248  and  _250
REMARK   98  A    between atoms: _250  and  _251
REMARK   99  A    between atoms: _250  and  _253
REMARK  100  A    between atoms: _256  and  _258
REMARK  101  A    between atoms: _258  and  _259
REMARK  102  A    between atoms: _258  and  _261
REMARK  103  A    between atoms: _261  and  _262
REMARK  104  A    between atoms: _262  and  _263
REMARK  105  A    between atoms: _265  and  _267
REMARK  106  A    between atoms: _267  and  _268
REMARK  107  A    between atoms: _267  and  _270
REMARK  108  A    between atoms: _270  and  _271
REMARK  109  A    between atoms: _281  and  _283
REMARK  110  A    between atoms: _283  and  _284
REMARK  111  A    between atoms: _283  and  _286
REMARK  112  A    between atoms: _286  and  _287
REMARK  113  A    between atoms: _290  and  _292
REMARK  114  A    between atoms: _292  and  _293
REMARK  115  A    between atoms: _295  and  _297
REMARK  116  A    between atoms: _297  and  _298
REMARK  117  A    between atoms: _300  and  _302
REMARK  118  A    between atoms: _302  and  _303
REMARK  119  A    between atoms: _302  and  _305
REMARK  120  A    between atoms: _308  and  _310
REMARK  121  A    between atoms: _310  and  _311
REMARK  122  A    between atoms: _310  and  _313
REMARK  123  A    between atoms: _316  and  _318
REMARK  124  A    between atoms: _318  and  _319
REMARK  125  A    between atoms: _322  and  _324
REMARK  126  A    between atoms: _324  and  _325
REMARK  127  A    between atoms: _324  and  _327
REMARK  128  A    between atoms: _330  and  _332
REMARK  129  A    between atoms: _332  and  _333
REMARK  130  A    between atoms: _332  and  _335
REMARK  131  A    between atoms: _335  and  _336
REMARK  132  A    between atoms: _346  and  _348
REMARK  133  A    between atoms: _348  and  _349
REMARK  134  A    between atoms: _348  and  _351
REMARK  135  A    between atoms: _351  and  _352
REMARK  136  A    between atoms: _362  and  _364
REMARK  137  A    between atoms: _364  and  _365
REMARK  138  A    between atoms: _364  and  _367
REMARK  139  A    between atoms: _367  and  _368
REMARK  140  A    between atoms: _373  and  _375
REMARK  141  A    between atoms: _375  and  _376
REMARK  142  A    between atoms: _375  and  _378
REMARK  143  A    between atoms: _378  and  _379
REMARK  144  A    between atoms: _384  and  _385
REMARK  145  A    between atoms: _387  and  _389
REMARK  146  A    between atoms: _389  and  _390
REMARK  147  A    between atoms: _389  and  _392
REMARK  148  A    between atoms: _395  and  _397
REMARK  149  A    between atoms: _397  and  _398
REMARK  150  A    between atoms: _397  and  _400
REMARK  151  A    between atoms: _400  and  _401
REMARK  152  A    between atoms: _404  and  _406
REMARK  153  A    between atoms: _406  and  _407
REMARK  154  A    between atoms: _406  and  _409
REMARK  155  A    between atoms: _409  and  _410
REMARK  156  A    between atoms: _413  and  _415
REMARK  157  A    between atoms: _415  and  _416
REMARK  158  A    between atoms: _415  and  _418
REMARK  159  A    between atoms: _418  and  _419
REMARK  160  A    between atoms: _424  and  _425
REMARK  161  A    between atoms: _427  and  _429
REMARK  162  A    between atoms: _429  and  _430
REMARK  163  A    between atoms: _429  and  _432
REMARK  164  A    between atoms: _432  and  _433
REMARK  165  A    between atoms: _439  and  _441
REMARK  166  A    between atoms: _441  and  _442
REMARK  167  A    between atoms: _441  and  _444
REMARK  168  A    between atoms: _444  and  _445
REMARK  169  A    between atoms: _448  and  _450
REMARK  170  A    between atoms: _450  and  _451
REMARK  171  A    between atoms: _450  and  _453
REMARK  172  A    between atoms: _453  and  _454
REMARK  173  A    between atoms: _460  and  _461
REMARK  174  A    between atoms: _466  and  _468
REMARK  175  A    between atoms: _468  and  _469
REMARK  176  A    between atoms: _468  and  _471
REMARK  177  A    between atoms: _471  and  _472
REMARK  178  A    between atoms: _477  and  _479
REMARK  179  A    between atoms: _479  and  _480
REMARK  180  A    between atoms: _479  and  _482
REMARK  181  A    between atoms: _482  and  _483
REMARK  182  A    between atoms: _493  and  _495
REMARK  183  A    between atoms: _495  and  _496
REMARK  184  A    between atoms: _499  and  _501
REMARK  185  A    between atoms: _501  and  _502
REMARK  186  A    between atoms: _501  and  _504
REMARK  187  A    between atoms: _504  and  _505
REMARK  188  A    between atoms: _508  and  _510
REMARK  189  A    between atoms: _510  and  _511
REMARK  190  A    between atoms: _510  and  _513
REMARK  191  A    between atoms: _513  and  _514
REMARK  192  A    between atoms: _516  and  _518
REMARK  193  A    between atoms: _518  and  _519
REMARK  194  A    between atoms: _518  and  _521
REMARK  195  A    between atoms: _521  and  _522
REMARK  196  A    between atoms: _524  and  _526
REMARK  197  A    between atoms: _526  and  _527
REMARK  198  A    between atoms: _526  and  _529
REMARK  199  A    between atoms: _529  and  _530
REMARK  200  A    between atoms: _530  and  _531
REMARK  201  A    between atoms: _531  and  _532
REMARK  202  A    between atoms: _532  and  _533
REMARK  203  A    between atoms: _537  and  _539
REMARK  204  A    between atoms: _539  and  _540
REMARK  205  A    between atoms: _539  and  _542
REMARK  206  A    between atoms: _542  and  _543
REMARK  207  A    between atoms: _549  and  _551
REMARK  208  A    between atoms: _551  and  _552
REMARK  209  A    between atoms: _551  and  _554
REMARK  210  A    between atoms: _554  and  _555
REMARK  211  A    between atoms: _558  and  _560
REMARK  212  A    between atoms: _560  and  _561
REMARK  213  A    between atoms: _560  and  _563
REMARK  214  A    between atoms: _563  and  _564
REMARK  215  A    between atoms: _567  and  _569
REMARK  216  A    between atoms: _569  and  _570
REMARK  217  A    between atoms: _569  and  _572
REMARK  218  A    between atoms: _572  and  _573
REMARK  219  A    between atoms: _576  and  _578
REMARK  220  A    between atoms: _578  and  _579
REMARK  221  A    between atoms: _578  and  _581
REMARK  222  A    between atoms: _581  and  _582
REMARK  223  A    between atoms: _585  and  _587
REMARK  224  A    between atoms: _587  and  _588
REMARK  225  A    between atoms: _587  and  _590
REMARK  226  A    between atoms: _590  and  _591
REMARK                            x       y       z     vdW  Elec       q    Type
REMARK                         _______ _______ _______ _____ _____    ______ ____
ROOT
ATOM      1  CA  VAL A   2       9.479   2.877  17.733  0.00  0.00    +0.148 C 
ENDROOT
BRANCH   1   3
ATOM      2  C   GLY A   1      11.869   2.450  18.018  0.00  0.00    +0.240 C 
ATOM      3  N   VAL A   2      10.747   3.003  18.472  0.00  0.00    -0.297 N 
ATOM      4  H   VAL A   2      10.766   3.534  19.366  0.00  0.00    +0.150 HD
ATOM      5  O   GLY A   1      11.897   1.757  17.006  0.00  0.00    -0.274 OA
BRANCH   2   6
ATOM      6  CA  GLY A   1      13.121   2.642  18.852  0.00  0.00    +0.169 C 
BRANCH   6   7
ATOM      7  N   GLY A   1      14.238   1.888  18.267  0.00  0.00    -0.236 NA
ATOM      8  H   GLY A   1      14.301   1.837  17.230  0.00  0.00    +0.142 HD
ENDBRANCH   6   7
ENDBRANCH   2   6
ENDBRANCH   1   3
BRANCH   1   9
ATOM      9  C   VAL A   2       9.537   3.673  16.410  0.00  0.00    +0.241 C 
ATOM     10  N   VAL A   3       9.951   4.940  16.494  0.00  0.00    -0.298 N 
ATOM     11  H   VAL A   3      10.050   5.366  17.437  0.00  0.00    +0.150 HD
ATOM     12  O   VAL A   2       9.210   3.136  15.336  0.00  0.00    -0.273 OA
BRANCH  10  13
ATOM     13  CA  VAL A   3      10.273   5.761  15.318  0.00  0.00    +0.137 C 
BRANCH  13  14
ATOM     14  CB  VAL A   3       9.269   6.935  15.162  0.00  0.00    +0.026 C 
ATOM     15  CG2 VAL A   3       7.856   6.419  14.961  0.00  0.00    +0.002 C 
ATOM     16  CG1 VAL A   3       9.666   7.860  14.012  0.00  0.00    +0.002 C 
ENDBRANCH  13  14
BRANCH  13  17
ATOM     17  C   VAL A   3      11.710   6.275  15.507  0.00  0.00    +0.227 C 
ATOM     18  O   VAL A   3      11.941   7.198  16.297  0.00  0.00    -0.286 OA
ENDBRANCH  13  17
ENDBRANCH  10  13
ENDBRANCH   1   9
BRANCH   1  19
ATOM     19  CB  VAL A   2       8.268   3.315  18.607  0.00  0.00    +0.027 C 
ATOM     20  CG2 VAL A   2       8.189   2.454  19.893  0.00  0.00    +0.002 C 
ATOM     21  CG1 VAL A   2       6.969   3.204  17.831  0.00  0.00    +0.002 C 
ENDBRANCH   1  19
TORSDOF 8
REMARK  Name = ../refined-set-2016/2xpk/2xpk_pocket.pdb
REMARK  226 active torsions:
REMARK  status: ('A' for Active; 'I' for Inactive)
REMARK    1  A    between atoms: _1  and  _3
REMARK    2  A    between atoms: _3  and  _4
REMARK    3  A    between atoms: _3  and  _6
REMARK    4  A    between atoms: _9  and  _11
REMARK    5  A    between atoms: _11  and  _12
REMARK    6  A    between atoms: _11  and  _14
REMARK    7  A    between atoms: _14  and  _15
REMARK    8  A    between atoms: _15  and  _16
REMARK    9  A    between atoms: _19  and  _21
REMARK   10  A    between atoms: _21  and  _22
REMARK   11  A    between atoms: _24  and  _26
REMARK   12  A    between atoms: _26  and  _27
REMARK   13  A    between atoms: _26  and  _29
REMARK   14  A    between atoms: _29  and  _30
REMARK   15  A    between atoms: _36  and  _38
REMARK   16  A    between atoms: _38  and  _39
REMARK   17  A    between atoms: _38  and  _41
REMARK   18  A    between atoms: _41  and  _42
REMARK   19  A    between atoms: _47  and  _48
REMARK   20  A    between atoms: _50  and  _52
REMARK   21  A    between atoms: _52  and  _53
REMARK   22  A    between atoms: _55  and  _57
REMARK   23  A    between atoms: _57  and  _58
REMARK   24  A    between atoms: _62  and  _63
REMARK   25  A    between atoms: _68  and  _70
REMARK   26  A    between atoms: _70  and  _71
REMARK   27  A    between atoms: _70  and  _73
REMARK   28  A    between atoms: _73  and  _74
REMARK   29  A    between atoms: _74  and  _75
REMARK   30  A    between atoms: _75  and  _76
REMARK   31  A    between atoms: _76  and  _77
REMARK   32  A    between atoms: _81  and  _83
REMARK   33  A    between atoms: _83  and  _84
REMARK   34  A    between atoms: _83  and  _86
REMARK   35  A    between atoms: _86  and  _87
REMARK   36  A    between atoms: _90  and  _92
REMARK   37  A    between atoms: _92  and  _93
REMARK   38  A    between atoms: _92  and  _95
REMARK   39  A    between atoms: _95  and  _96
REMARK   40  A    between atoms: _101  and  _103
REMARK   41  A    between atoms: _103  and  _104
REMARK   42  A    between atoms: _103  and  _106
REMARK   43  A    between atoms: _106  and  _107
REMARK   44  A    between atoms: _107  and  _108
REMARK   45  A    between atoms: _108  and  _109
REMARK   46  A    between atoms: _118  and  _120
REMARK   47  A    between atoms: _120  and  _121
REMARK   48  A    between atoms: _120  and  _123
REMARK   49  A    between atoms: _123  and  _124
REMARK   50  A    between atoms: _126  and  _128
REMARK   51  A    between atoms: _128  and  _129
REMARK   52  A    between atoms: _128  and  _131
REMARK   53  A    between atoms: _131  and  _132
REMARK   54  A    between atoms: _137  and  _138
REMARK   55  A    between atoms: _140  and  _142
REMARK   56  A    between atoms: _142  and  _143
REMARK   57  A    between atoms: _142  and  _145
REMARK   58  A    between atoms: _145  and  _146
REMARK   59  A    between atoms: _156  and  _158
REMARK   60  A    between atoms: _158  and  _159
REMARK   61  A    between atoms: _158  and  _161
REMARK   62  A    between atoms: _161  and  _162
REMARK   63  A    between atoms: _165  and  _167
REMARK   64  A    between atoms: _167  and  _168
REMARK   65  A    between atoms: _167  and  _170
REMARK   66  A    between atoms: _170  and  _171
REMARK   67  A    between atoms: _174  and  _176
REMARK   68  A    between atoms: _176  and  _177
REMARK   69  A    between atoms: _176  and  _179
REMARK   70  A    between atoms: _179  and  _180
REMARK   71  A    between atoms: _183  and  _185
REMARK   72  A    between atoms: _185  and  _186
REMARK   73  A    between atoms: _185  and  _188
REMARK   74  A    between atoms: _188  and  _189
REMARK   75  A    between atoms: _192  and  _194
REMARK   76  A    between atoms: _194  and  _195
REMARK   77  A    between atoms: _194  and  _197
REMARK   78  A    between atoms: _200  and  _201
REMARK   79  A    between atoms: _206  and  _208
REMARK   80  A    between atoms: _208  and  _209
REMARK   81  A    between atoms: _208  and  _211
REMARK   82  A    between atoms: _211  and  _212
REMARK   83  A    between atoms: _215  and  _217
REMARK   84  A    between atoms: _217  and  _218
REMARK   85  A    between atoms: _217  and  _220
REMARK   86  A    between atoms: _220  and  _221
REMARK   87  A    between atoms: _221  and  _222
REMARK   88  A    between atoms: _225  and  _227
REMARK   89  A    between atoms: _227  and  _228
REMARK   90  A    between atoms: _227  and  _230
REMARK   91  A    between atoms: _230  and  _231
REMARK   92  A    between atoms: _236  and  _237
REMARK   93  A    between atoms: _239  and  _241
REMARK   94  A    between atoms: _241  and  _242
REMARK   95  A    between atoms: _241  and  _244
REMARK   96  A    between atoms: _244  and  _245
REMARK   97  A    between atoms: _248  and  _250
REMARK   98  A    between atoms: _250  and  _251
REMARK   99  A    between atoms: _250  and  _253
REMARK  100  A    between atoms: _256  and  _258
REMARK  101  A    between atoms: _258  and  _259
REMARK  102  A    between atoms: _258  and  _261
REMARK  103  A    between atoms: _261  and  _262
REMARK  104  A    between atoms: _262  and  _263
REMARK  105  A    between atoms: _265  and  _267
REMARK  106  A    between atoms: _267  and  _268
REMARK  107  A    between atoms: _267  and  _270
REMARK  108  A    between atoms: _270  and  _271
REMARK  109  A    between atoms: _281  and  _283
REMARK  110  A    between atoms: _283  and  _284
REMARK  111  A    between atoms: _283  and  _286
REMARK  112  A    between atoms: _286  and  _287
REMARK  113  A    between atoms: _290  and  _292
REMARK  114  A    between atoms: _292  and  _293
REMARK  115  A    between atoms: _295  and  _297
REMARK  116  A    between atoms: _297  and  _298
REMARK  117  A    between atoms: _300  and  _302
REMARK  118  A    between atoms: _302  and  _303
REMARK  119  A    between atoms: _302  and  _305
REMARK  120  A    between atoms: _308  and  _310
REMARK  121  A    between atoms: _310  and  _311
REMARK  122  A    between atoms: _310  and  _313
REMARK  123  A    between atoms: _316  and  _318
REMARK  124  A    between atoms: _318  and  _319
REMARK  125  A    between atoms: _322  and  _324
REMARK  126  A    between atoms: _324  and  _325
REMARK  127  A    between atoms: _324  and  _327
REMARK  128  A    between atoms: _330  and  _332
REMARK  129  A    between atoms: _332  and  _333
REMARK  130  A    between atoms: _332  and  _335
REMARK  131  A    between atoms: _335  and  _336
REMARK  132  A    between atoms: _346  and  _348
REMARK  133  A    between atoms: _348  and  _349
REMARK  134  A    between atoms: _348  and  _351
REMARK  135  A    between atoms: _351  and  _352
REMARK  136  A    between atoms: _362  and  _364
REMARK  137  A    between atoms: _364  and  _365
REMARK  138  A    between atoms: _364  and  _367
REMARK  139  A    between atoms: _367  and  _368
REMARK  140  A    between atoms: _373  and  _375
REMARK  141  A    between atoms: _375  and  _376
REMARK  142  A    between atoms: _375  and  _378
REMARK  143  A    between atoms: _378  and  _379
REMARK  144  A    between atoms: _384  and  _385
REMARK  145  A    between atoms: _387  and  _389
REMARK  146  A    between atoms: _389  and  _390
REMARK  147  A    between atoms: _389  and  _392
REMARK  148  A    between atoms: _395  and  _397
REMARK  149  A    between atoms: _397  and  _398
REMARK  150  A    between atoms: _397  and  _400
REMARK  151  A    between atoms: _400  and  _401
REMARK  152  A    between atoms: _404  and  _406
REMARK  153  A    between atoms: _406  and  _407
REMARK  154  A    between atoms: _406  and  _409
REMARK  155  A    between atoms: _409  and  _410
REMARK  156  A    between atoms: _413  and  _415
REMARK  157  A    between atoms: _415  and  _416
REMARK  158  A    between atoms: _415  and  _418
REMARK  159  A    between atoms: _418  and  _419
REMARK  160  A    between atoms: _424  and  _425
REMARK  161  A    between atoms: _427  and  _429
REMARK  162  A    between atoms: _429  and  _430
REMARK  163  A    between atoms: _429  and  _432
REMARK  164  A    between atoms: _432  and  _433
REMARK  165  A    between atoms: _439  and  _441
REMARK  166  A    between atoms: _441  and  _442
REMARK  167  A    between atoms: _441  and  _444
REMARK  168  A    between atoms: _444  and  _445
REMARK  169  A    between atoms: _448  and  _450
REMARK  170  A    between atoms: _450  and  _451
REMARK  171  A    between atoms: _450  and  _453
REMARK  172  A    between atoms: _453  and  _454
REMARK  173  A    between atoms: _460  and  _461
REMARK  174  A    between atoms: _466  and  _468
REMARK  175  A    between atoms: _468  and  _469
REMARK  176  A    between atoms: _468  and  _471
REMARK  177  A    between atoms: _471  and  _472
REMARK  178  A    between atoms: _477  and  _479
REMARK  179  A    between atoms: _479  and  _480
REMARK  180  A    between atoms: _479  and  _482
REMARK  181  A    between atoms: _482  and  _483
REMARK  182  A    between atoms: _493  and  _495
REMARK  183  A    between atoms: _495  and  _496
REMARK  184  A    between atoms: _499  and  _501
REMARK  185  A    between atoms: _501  and  _502
REMARK  186  A    between atoms: _501  and  _504
REMARK  187  A    between atoms: _504  and  _505
REMARK  188  A    between atoms: _508  and  _510
REMARK  189  A    between atoms: _510  and  _511
REMARK  190  A    between atoms: _510  and  _513
REMARK  191  A    between atoms: _513  and  _514
REMARK  192  A    between atoms: _516  and  _518
REMARK  193  A    between atoms: _518  and  _519
REMARK  194  A    between atoms: _518  and  _521
REMARK  195  A    between atoms: _521  and  _522
REMARK  196  A    between atoms: _524  and  _526
REMARK  197  A    between atoms: _526  and  _527
REMARK  198  A    between atoms: _526  and  _529
REMARK  199  A    between atoms: _529  and  _530
REMARK  200  A    between atoms: _530  and  _531
REMARK  201  A    between atoms: _531  and  _532
REMARK  202  A    between atoms: _532  and  _533
REMARK  203  A    between atoms: _537  and  _539
REMARK  204  A    between atoms: _539  and  _540
REMARK  205  A    between atoms: _539  and  _542
REMARK  206  A    between atoms: _542  and  _543
REMARK  207  A    between atoms: _549  and  _551
REMARK  208  A    between atoms: _551  and  _552
REMARK  209  A    between atoms: _551  and  _554
REMARK  210  A    between atoms: _554  and  _555
REMARK  211  A    between atoms: _558  and  _560
REMARK  212  A    between atoms: _560  and  _561
REMARK  213  A    between atoms: _560  and  _563
REMARK  214  A    between atoms: _563  and  _564
REMARK  215  A    between atoms: _567  and  _569
REMARK  216  A    between atoms: _569  and  _570
REMARK  217  A    between atoms: _569  and  _572
REMARK  218  A    between atoms: _572  and  _573
REMARK  219  A    between atoms: _576  and  _578
REMARK  220  A    between atoms: _578  and  _579
REMARK  221  A    between atoms: _578  and  _581
REMARK  222  A    between atoms: _581  and  _582
REMARK  223  A    between atoms: _585  and  _587
REMARK  224  A    between atoms: _587  and  _588
REMARK  225  A    between atoms: _587  and  _590
REMARK  226  A    between atoms: _590  and  _591
REMARK                            x       y       z     vdW  Elec       q    Type
REMARK                         _______ _______ _______ _____ _____    ______ ____
ROOT
ATOM      1  CA  TRP A   4       9.350   0.515   9.646  0.00  0.00    +0.153 C 
ENDROOT
BRANCH   1   4
ATOM      2  C   TRP A   3       8.393  -1.424  10.763  0.00  0.00    +0.241 C 
ATOM      3  O   TRP A   3       8.627  -0.928  11.864  0.00  0.00    -0.273 OA
ATOM      4  N   TRP A   4       8.675  -0.785   9.632  0.00  0.00    -0.297 N 
ATOM      5  H   TRP A   4       8.412  -1.215   8.722  0.00  0.00    +0.150 HD
BRANCH   2   6
ATOM      6  CA  TRP A   3       7.763  -2.823  10.668  0.00  0.00    +0.153 C 
BRANCH   6   8
ATOM      7  C   VAL A   2       9.421  -4.452   9.854  0.00  0.00    +0.241 C 
ATOM      8  N   TRP A   3       8.878  -3.752  10.856  0.00  0.00    -0.297 N 
ATOM      9  H   TRP A   3       9.266  -3.874  11.813  0.00  0.00    +0.150 HD
ATOM     10  O   VAL A   2       8.909  -4.609   8.745  0.00  0.00    -0.273 OA
BRANCH   7  11
ATOM     11  CA  VAL A   2      10.727  -5.100  10.151  0.00  0.00    +0.148 C 
BRANCH  11  14
ATOM     12  C   ALA A   1      10.658  -7.493  10.677  0.00  0.00    +0.238 C 
ATOM     13  O   ALA A   1      10.718  -7.271  11.889  0.00  0.00    -0.274 OA
ATOM     14  N   VAL A   2      10.627  -6.520   9.761  0.00  0.00    -0.297 N 
ATOM     15  H   VAL A   2      10.531  -6.768   8.756  0.00  0.00    +0.150 HD
BRANCH  12  16
ATOM     16  CA  ALA A   1      10.626  -8.936  10.163  0.00  0.00    +0.145 C 
ATOM     17  CB  ALA A   1       9.183  -9.471  10.084  0.00  0.00    +0.028 C 
BRANCH  16  18
ATOM     18  N   ALA A   1      11.440  -9.764  11.041  0.00  0.00    -0.238 NA
ATOM     19  H   ALA A   1      11.091  -9.974  11.998  0.00  0.00    +0.142 HD
ENDBRANCH  16  18
ENDBRANCH  12  16
ENDBRANCH  11  14
BRANCH  11  20
ATOM     20  CB  VAL A   2      11.829  -4.317   9.382  0.00  0.00    +0.027 C 
ATOM     21  CG2 VAL A   2      13.197  -4.822   9.750  0.00  0.00    +0.002 C 
ATOM     22  CG1 VAL A   2      11.704  -2.786   9.614  0.00  0.00    +0.002 C 
ENDBRANCH  11  20
ENDBRANCH   7  11
ENDBRANCH   6   8
BRANCH   6  23
ATOM     23  CB  TRP A   3       6.755  -3.062  11.789  0.00  0.00    +0.057 C 
BRANCH  23  24
ATOM     24  CG  TRP A   3       5.594  -2.079  11.923  0.00  0.00    -0.002 A 
ATOM     25  CD2 TRP A   3       4.202  -2.409  12.153  0.00  0.00    +0.013 A 
ATOM     26  CE3 TRP A   3       3.497  -3.614  12.289  0.00  0.00    +0.001 A 
ATOM     27  CZ3 TRP A   3       2.129  -3.561  12.518  0.00  0.00    +0.000 A 
ATOM     28  CH2 TRP A   3       1.454  -2.315  12.590  0.00  0.00    +0.001 A 
ATOM     29  CZ2 TRP A   3       2.121  -1.133  12.455  0.00  0.00    +0.017 A 
ATOM     30  CE2 TRP A   3       3.499  -1.195  12.244  0.00  0.00    +0.056 A 
ATOM     31  NE1 TRP A   3       4.413  -0.186  12.091  0.00  0.00    -0.352 N 
ATOM     32  HE1 TRP A   3       4.193   0.830  12.111  0.00  0.00    +0.166 HD
ATOM     33  CD1 TRP A   3       5.659  -0.720  11.908  0.00  0.00    +0.068 A 
ENDBRANCH  23  24
ENDBRANCH   6  23
ENDBRANCH   2   6
ENDBRANCH   1   4
BRANCH   1  34
ATOM     34  C   TRP A   4       8.360   1.686   9.696  0.00  0.00    +0.241 C 
ATOM     35  N   ASN A   5       8.379   2.449  10.787  0.00  0.00    -0.297 N 
ATOM     36  H   ASN A   5       9.104   2.278  11.513  0.00  0.00    +0.150 HD
ATOM     37  O   TRP A   4       7.615   1.911   8.752  0.00  0.00    -0.273 OA
BRANCH  35  38
ATOM     38  CA  ASN A   5       7.419   3.507  10.988  0.00  0.00    +0.158 C 
BRANCH  38  39
ATOM     39  C   ASN A   5       7.851   4.782  10.295  0.00  0.00    +0.241 C 
ATOM     40  O   ASN A   5       8.143   5.800  10.924  0.00  0.00    -0.273 OA
ATOM     41  N   TYR A   6       7.868   4.721   8.968  0.00  0.00    -0.298 N 
ATOM     42  H   TYR A   6       7.701   3.800   8.515  0.00  0.00    +0.150 HD
BRANCH  41  43
ATOM     43  CA  TYR A   6       8.108   5.876   8.115  0.00  0.00    +0.141 C 
BRANCH  43  44
ATOM     44  C   TYR A   6       7.616   5.404   6.761  0.00  0.00    +0.227 C 
ATOM     45  O   TYR A   6       8.048   4.329   6.314  0.00  0.00    -0.286 OA
ENDBRANCH  43  44
BRANCH  43  46
ATOM     46  CB  TYR A   6       9.604   6.186   8.051  0.00  0.00    +0.054 C 
BRANCH  46  47
ATOM     47  CG  TYR A   6       9.918   7.440   7.269  0.00  0.00    -0.020 A 
ATOM     48  CD2 TYR A   6      10.158   8.658   7.918  0.00  0.00    -0.001 A 
ATOM     49  CE2 TYR A   6      10.445   9.811   7.192  0.00  0.00    +0.036 A 
ATOM     50  CZ  TYR A   6      10.486   9.752   5.816  0.00  0.00    +0.134 A 
ATOM     51  CE1 TYR A   6      10.248   8.568   5.161  0.00  0.00    +0.036 A 
ATOM     52  CD1 TYR A   6       9.974   7.422   5.888  0.00  0.00    -0.001 A 
BRANCH  50  53
ATOM     53  OH  TYR A   6      10.766  10.881   5.079  0.00  0.00    -0.506 OA
ATOM     54  HH  TYR A   6      10.912  11.645   5.691  0.00  0.00    +0.292 HD
ENDBRANCH  50  53
ENDBRANCH  46  47
ENDBRANCH  43  46
ENDBRANCH  41  43
ENDBRANCH  38  39
BRANCH  38  55
ATOM     55  CB  ASN A   5       7.145   3.733  12.480  0.00  0.00    +0.114 C 
BRANCH  55  56
ATOM     56  CG  ASN A   5       6.131   2.738  13.056  0.00  0.00    +0.222 C 
ATOM     57  ND2 ASN A   5       6.373   2.287  14.271  0.00  0.00    -0.329 N 
ATOM     58 HD21 ASN A   5       7.229   2.591  14.778  0.00  0.00    +0.145 HD
ATOM     59 HD22 ASN A   5       5.708   1.627  14.723  0.00  0.00    +0.145 HD
ATOM     60  OD1 ASN A   5       5.133   2.407  12.417  0.00  0.00    -0.275 OA
ENDBRANCH  55  56
ENDBRANCH  38  55
ENDBRANCH  35  38
ENDBRANCH   1  34
BRANCH   1  61
ATOM     61  CB  TRP A   4      10.259   0.621   8.420  0.00  0.00    +0.057 C 
BRANCH  61  62
ATOM     62  CG  TRP A   4      11.166   1.817   8.357  0.00  0.00    -0.002 A 
ATOM     63  CD2 TRP A   4      12.209   2.174   9.279  0.00  0.00    +0.013 A 
ATOM     64  CE3 TRP A   4      12.686   1.619  10.486  0.00  0.00    +0.001 A 
ATOM     65  CZ3 TRP A   4      13.736   2.264  11.160  0.00  0.00    +0.000 A 
ATOM     66  CH2 TRP A   4      14.312   3.457  10.649  0.00  0.00    +0.001 A 
ATOM     67  CZ2 TRP A   4      13.872   4.018   9.475  0.00  0.00    +0.017 A 
ATOM     68  CE2 TRP A   4      12.804   3.364   8.795  0.00  0.00    +0.056 A 
ATOM     69  NE1 TRP A   4      12.175   3.685   7.623  0.00  0.00    -0.352 N 
ATOM     70  HE1 TRP A   4      12.403   4.501   7.021  0.00  0.00    +0.166 HD
ATOM     71  CD1 TRP A   4      11.195   2.758   7.369  0.00  0.00    +0.068 A 
ENDBRANCH  61  62
ENDBRANCH   1  61
TORSDOF 22
REMARK  Name = ../refined-set-2016/2xpk/2xpk_pocket.pdb
REMARK  226 active torsions:
REMARK  status: ('A' for Active; 'I' for Inactive)
REMARK    1  A    between atoms: _1  and  _3
REMARK    2  A    between atoms: _3  and  _4
REMARK    3  A    between atoms: _3  and  _6
REMARK    4  A    between atoms: _9  and  _11
REMARK    5  A    between atoms: _11  and  _12
REMARK    6  A    between atoms: _11  and  _14
REMARK    7  A    between atoms: _14  and  _15
REMARK    8  A    between atoms: _15  and  _16
REMARK    9  A    between atoms: _19  and  _21
REMARK   10  A    between atoms: _21  and  _22
REMARK   11  A    between atoms: _24  and  _26
REMARK   12  A    between atoms: _26  and  _27
REMARK   13  A    between atoms: _26  and  _29
REMARK   14  A    between atoms: _29  and  _30
REMARK   15  A    between atoms: _36  and  _38
REMARK   16  A    between atoms: _38  and  _39
REMARK   17  A    between atoms: _38  and  _41
REMARK   18  A    between atoms: _41  and  _42
REMARK   19  A    between atoms: _47  and  _48
REMARK   20  A    between atoms: _50  and  _52
REMARK   21  A    between atoms: _52  and  _53
REMARK   22  A    between atoms: _55  and  _57
REMARK   23  A    between atoms: _57  and  _58
REMARK   24  A    between atoms: _62  and  _63
REMARK   25  A    between atoms: _68  and  _70
REMARK   26  A    between atoms: _70  and  _71
REMARK   27  A    between atoms: _70  and  _73
REMARK   28  A    between atoms: _73  and  _74
REMARK   29  A    between atoms: _74  and  _75
REMARK   30  A    between atoms: _75  and  _76
REMARK   31  A    between atoms: _76  and  _77
REMARK   32  A    between atoms: _81  and  _83
REMARK   33  A    between atoms: _83  and  _84
REMARK   34  A    between atoms: _83  and  _86
REMARK   35  A    between atoms: _86  and  _87
REMARK   36  A    between atoms: _90  and  _92
REMARK   37  A    between atoms: _92  and  _93
REMARK   38  A    between atoms: _92  and  _95
REMARK   39  A    between atoms: _95  and  _96
REMARK   40  A    between atoms: _101  and  _103
REMARK   41  A    between atoms: _103  and  _104
REMARK   42  A    between atoms: _103  and  _106
REMARK   43  A    between atoms: _106  and  _107
REMARK   44  A    between atoms: _107  and  _108
REMARK   45  A    between atoms: _108  and  _109
REMARK   46  A    between atoms: _118  and  _120
REMARK   47  A    between atoms: _120  and  _121
REMARK   48  A    between atoms: _120  and  _123
REMARK   49  A    between atoms: _123  and  _124
REMARK   50  A    between atoms: _126  and  _128
REMARK   51  A    between atoms: _128  and  _129
REMARK   52  A    between atoms: _128  and  _131
REMARK   53  A    between atoms: _131  and  _132
REMARK   54  A    between atoms: _137  and  _138
REMARK   55  A    between atoms: _140  and  _142
REMARK   56  A    between atoms: _142  and  _143
REMARK   57  A    between atoms: _142  and  _145
REMARK   58  A    between atoms: _145  and  _146
REMARK   59  A    between atoms: _156  and  _158
REMARK   60  A    between atoms: _158  and  _159
REMARK   61  A    between atoms: _158  and  _161
REMARK   62  A    between atoms: _161  and  _162
REMARK   63  A    between atoms: _165  and  _167
REMARK   64  A    between atoms: _167  and  _168
REMARK   65  A    between atoms: _167  and  _170
REMARK   66  A    between atoms: _170  and  _171
REMARK   67  A    between atoms: _174  and  _176
REMARK   68  A    between atoms: _176  and  _177
REMARK   69  A    between atoms: _176  and  _179
REMARK   70  A    between atoms: _179  and  _180
REMARK   71  A    between atoms: _183  and  _185
REMARK   72  A    between atoms: _185  and  _186
REMARK   73  A    between atoms: _185  and  _188
REMARK   74  A    between atoms: _188  and  _189
REMARK   75  A    between atoms: _192  and  _194
REMARK   76  A    between atoms: _194  and  _195
REMARK   77  A    between atoms: _194  and  _197
REMARK   78  A    between atoms: _200  and  _201
REMARK   79  A    between atoms: _206  and  _208
REMARK   80  A    between atoms: _208  and  _209
REMARK   81  A    between atoms: _208  and  _211
REMARK   82  A    between atoms: _211  and  _212
REMARK   83  A    between atoms: _215  and  _217
REMARK   84  A    between atoms: _217  and  _218
REMARK   85  A    between atoms: _217  and  _220
REMARK   86  A    between atoms: _220  and  _221
REMARK   87  A    between atoms: _221  and  _222
REMARK   88  A    between atoms: _225  and  _227
REMARK   89  A    between atoms: _227  and  _228
REMARK   90  A    between atoms: _227  and  _230
REMARK   91  A    between atoms: _230  and  _231
REMARK   92  A    between atoms: _236  and  _237
REMARK   93  A    between atoms: _239  and  _241
REMARK   94  A    between atoms: _241  and  _242
REMARK   95  A    between atoms: _241  and  _244
REMARK   96  A    between atoms: _244  and  _245
REMARK   97  A    between atoms: _248  and  _250
REMARK   98  A    between atoms: _250  and  _251
REMARK   99  A    between atoms: _250  and  _253
REMARK  100  A    between atoms: _256  and  _258
REMARK  101  A    between atoms: _258  and  _259
REMARK  102  A    between atoms: _258  and  _261
REMARK  103  A    between atoms: _261  and  _262
REMARK  104  A    between atoms: _262  and  _263
REMARK  105  A    between atoms: _265  and  _267
REMARK  106  A    between atoms: _267  and  _268
REMARK  107  A    between atoms: _267  and  _270
REMARK  108  A    between atoms: _270  and  _271
REMARK  109  A    between atoms: _281  and  _283
REMARK  110  A    between atoms: _283  and  _284
REMARK  111  A    between atoms: _283  and  _286
REMARK  112  A    between atoms: _286  and  _287
REMARK  113  A    between atoms: _290  and  _292
REMARK  114  A    between atoms: _292  and  _293
REMARK  115  A    between atoms: _295  and  _297
REMARK  116  A    between atoms: _297  and  _298
REMARK  117  A    between atoms: _300  and  _302
REMARK  118  A    between atoms: _302  and  _303
REMARK  119  A    between atoms: _302  and  _305
REMARK  120  A    between atoms: _308  and  _310
REMARK  121  A    between atoms: _310  and  _311
REMARK  122  A    between atoms: _310  and  _313
REMARK  123  A    between atoms: _316  and  _318
REMARK  124  A    between atoms: _318  and  _319
REMARK  125  A    between atoms: _322  and  _324
REMARK  126  A    between atoms: _324  and  _325
REMARK  127  A    between atoms: _324  and  _327
REMARK  128  A    between atoms: _330  and  _332
REMARK  129  A    between atoms: _332  and  _333
REMARK  130  A    between atoms: _332  and  _335
REMARK  131  A    between atoms: _335  and  _336
REMARK  132  A    between atoms: _346  and  _348
REMARK  133  A    between atoms: _348  and  _349
REMARK  134  A    between atoms: _348  and  _351
REMARK  135  A    between atoms: _351  and  _352
REMARK  136  A    between atoms: _362  and  _364
REMARK  137  A    between atoms: _364  and  _365
REMARK  138  A    between atoms: _364  and  _367
REMARK  139  A    between atoms: _367  and  _368
REMARK  140  A    between atoms: _373  and  _375
REMARK  141  A    between atoms: _375  and  _376
REMARK  142  A    between atoms: _375  and  _378
REMARK  143  A    between atoms: _378  and  _379
REMARK  144  A    between atoms: _384  and  _385
REMARK  145  A    between atoms: _387  and  _389
REMARK  146  A    between atoms: _389  and  _390
REMARK  147  A    between atoms: _389  and  _392
REMARK  148  A    between atoms: _395  and  _397
REMARK  149  A    between atoms: _397  and  _398
REMARK  150  A    between atoms: _397  and  _400
REMARK  151  A    between atoms: _400  and  _401
REMARK  152  A    between atoms: _404  and  _406
REMARK  153  A    between atoms: _406  and  _407
REMARK  154  A    between atoms: _406  and  _409
REMARK  155  A    between atoms: _409  and  _410
REMARK  156  A    between atoms: _413  and  _415
REMARK  157  A    between atoms: _415  and  _416
REMARK  158  A    between atoms: _415  and  _418
REMARK  159  A    between atoms: _418  and  _419
REMARK  160  A    between atoms: _424  and  _425
REMARK  161  A    between atoms: _427  and  _429
REMARK  162  A    between atoms: _429  and  _430
REMARK  163  A    between atoms: _429  and  _432
REMARK  164  A    between atoms: _432  and  _433
REMARK  165  A    between atoms: _439  and  _441
REMARK  166  A    between atoms: _441  and  _442
REMARK  167  A    between atoms: _441  and  _444
REMARK  168  A    between atoms: _444  and  _445
REMARK  169  A    between atoms: _448  and  _450
REMARK  170  A    between atoms: _450  and  _451
REMARK  171  A    between atoms: _450  and  _453
REMARK  172  A    between atoms: _453  and  _454
REMARK  173  A    between atoms: _460  and  _461
REMARK  174  A    between atoms: _466  and  _468
REMARK  175  A    between atoms: _468  and  _469
REMARK  176  A    between atoms: _468  and  _471
REMARK  177  A    between atoms: _471  and  _472
REMARK  178  A    between atoms: _477  and  _479
REMARK  179  A    between atoms: _479  and  _480
REMARK  180  A    between atoms: _479  and  _482
REMARK  181  A    between atoms: _482  and  _483
REMARK  182  A    between atoms: _493  and  _495
REMARK  183  A    between atoms: _495  and  _496
REMARK  184  A    between atoms: _499  and  _501
REMARK  185  A    between atoms: _501  and  _502
REMARK  186  A    between atoms: _501  and  _504
REMARK  187  A    between atoms: _504  and  _505
REMARK  188  A    between atoms: _508  and  _510
REMARK  189  A    between atoms: _510  and  _511
REMARK  190  A    between atoms: _510  and  _513
REMARK  191  A    between atoms: _513  and  _514
REMARK  192  A    between atoms: _516  and  _518
REMARK  193  A    between atoms: _518  and  _519
REMARK  194  A    between atoms: _518  and  _521
REMARK  195  A    between atoms: _521  and  _522
REMARK  196  A    between atoms: _524  and  _526
REMARK  197  A    between atoms: _526  and  _527
REMARK  198  A    between atoms: _526  and  _529
REMARK  199  A    between atoms: _529  and  _530
REMARK  200  A    between atoms: _530  and  _531
REMARK  201  A    between atoms: _531  and  _532
REMARK  202  A    between atoms: _532  and  _533
REMARK  203  A    between atoms: _537  and  _539
REMARK  204  A    between atoms: _539  and  _540
REMARK  205  A    between atoms: _539  and  _542
REMARK  206  A    between atoms: _542  and  _543
REMARK  207  A    between atoms: _549  and  _551
REMARK  208  A    between atoms: _551  and  _552
REMARK  209  A    between atoms: _551  and  _554
REMARK  210  A    between atoms: _554  and  _555
REMARK  211  A    between atoms: _558  and  _560
REMARK  212  A    between atoms: _560  and  _561
REMARK  213  A    between atoms: _560  and  _563
REMARK  214  A    between atoms: _563  and  _564
REMARK  215  A    between atoms: _567  and  _569
REMARK  216  A    between atoms: _569  and  _570
REMARK  217  A    between atoms: _569  and  _572
REMARK  218  A    between atoms: _572  and  _573
REMARK  219  A    between atoms: _576  and  _578
REMARK  220  A    between atoms: _578  and  _579
REMARK  221  A    between atoms: _578  and  _581
REMARK  222  A    between atoms: _581  and  _582
REMARK  223  A    between atoms: _585  and  _587
REMARK  224  A    between atoms: _587  and  _588
REMARK  225  A    between atoms: _587  and  _590
REMARK  226  A    between atoms: _590  and  _591
REMARK                            x       y       z     vdW  Elec       q    Type
REMARK                         _______ _______ _______ _____ _____    ______ ____
ROOT
ATOM      1  C   ASP A   3       0.132  10.268  14.145  0.00  0.00    +0.241 C 
ATOM      2  O   ASP A   3      -0.766  10.781  14.843  0.00  0.00    -0.273 OA
ATOM      3  N   TYR A   4       1.419  10.306  14.465  0.00  0.00    -0.297 N 
ATOM      4  H   TYR A   4       2.114   9.939  13.784  0.00  0.00    +0.150 HD
ENDROOT
BRANCH   3   5
ATOM      5  CA  TYR A   4       1.894  10.839  15.725  0.00  0.00    +0.153 C 
BRANCH   5   6
ATOM      6  C   TYR A   4       2.220  12.338  15.604  0.00  0.00    +0.241 C 
ATOM      7  O   TYR A   4       2.417  12.995  16.600  0.00  0.00    -0.273 OA
ATOM      8  N   PHE A   5       2.273  12.855  14.379  0.00  0.00    -0.298 N 
ATOM      9  H   PHE A   5       2.058  12.235  13.572  0.00  0.00    +0.150 HD
BRANCH   8  10
ATOM     10  CA  PHE A   5       2.624  14.272  14.106  0.00  0.00    +0.141 C 
BRANCH  10  11
ATOM     11  C   PHE A   5       1.947  14.689  12.802  0.00  0.00    +0.227 C 
ATOM     12  O   PHE A   5       2.601  15.006  11.823  0.00  0.00    -0.286 OA
ENDBRANCH  10  11
BRANCH  10  13
ATOM     13  CB  PHE A   5       4.151  14.419  14.010  0.00  0.00    +0.054 C 
BRANCH  13  14
ATOM     14  CG  PHE A   5       4.656  15.822  14.187  0.00  0.00    -0.020 A 
ATOM     15  CD2 PHE A   5       4.335  16.570  15.320  0.00  0.00    -0.004 A 
ATOM     16  CE2 PHE A   5       4.818  17.894  15.472  0.00  0.00    -0.000 A 
ATOM     17  CZ  PHE A   5       5.625  18.445  14.499  0.00  0.00    -0.000 A 
ATOM     18  CE1 PHE A   5       5.967  17.705  13.386  0.00  0.00    -0.000 A 
ATOM     19  CD1 PHE A   5       5.492  16.397  13.236  0.00  0.00    -0.004 A 
ENDBRANCH  13  14
ENDBRANCH  10  13
ENDBRANCH   8  10
ENDBRANCH   5   6
BRANCH   5  20
ATOM     20  CB  TYR A   4       3.106  10.037  16.221  0.00  0.00    +0.055 C 
BRANCH  20  21
ATOM     21  CG  TYR A   4       4.270  10.084  15.274  0.00  0.00    -0.020 A 
ATOM     22  CD2 TYR A   4       5.180  11.128  15.340  0.00  0.00    -0.001 A 
ATOM     23  CE2 TYR A   4       6.238  11.180  14.496  0.00  0.00    +0.036 A 
ATOM     24  CZ  TYR A   4       6.393  10.206  13.555  0.00  0.00    +0.134 A 
ATOM     25  CE1 TYR A   4       5.509   9.151  13.457  0.00  0.00    +0.036 A 
ATOM     26  CD1 TYR A   4       4.462   9.096  14.304  0.00  0.00    -0.001 A 
BRANCH  24  27
ATOM     27  OH  TYR A   4       7.447  10.310  12.720  0.00  0.00    -0.506 OA
ATOM     28  HH  TYR A   4       7.123  10.367  11.786  0.00  0.00    +0.292 HD
ENDBRANCH  24  27
ENDBRANCH  20  21
ENDBRANCH   5  20
ENDBRANCH   3   5
BRANCH   1  29
ATOM     29  CA  ASP A   3      -0.198   9.594  12.816  0.00  0.00    +0.160 C 
BRANCH  29  32
ATOM     30  C   THR A   2       1.508  10.697  11.467  0.00  0.00    +0.243 C 
ATOM     31  O   THR A   2       1.222  11.805  11.950  0.00  0.00    -0.273 OA
ATOM     32  N   ASP A   3       0.902   9.574  11.858  0.00  0.00    -0.296 N 
ATOM     33  H   ASP A   3       1.221   8.663  11.471  0.00  0.00    +0.150 HD
BRANCH  30  34
ATOM     34  CA  THR A   2       2.608  10.571  10.396  0.00  0.00    +0.176 C 
BRANCH  34  37
ATOM     35  C   VAL A   1       3.761   8.503   9.639  0.00  0.00    +0.238 C 
ATOM     36  O   VAL A   1       4.869   8.836  10.111  0.00  0.00    -0.274 OA
ATOM     37  N   THR A   2       2.640   9.251   9.734  0.00  0.00    -0.295 N 
ATOM     38  H   THR A   2       1.760   8.881   9.322  0.00  0.00    +0.150 HD
BRANCH  35  39
ATOM     39  CA  VAL A   1       3.627   7.182   8.883  0.00  0.00    +0.145 C 
BRANCH  39  40
ATOM     40  CB  VAL A   1       3.448   6.001   9.862  0.00  0.00    +0.025 C 
ATOM     41  CG2 VAL A   1       4.673   5.841  10.742  0.00  0.00    +0.002 C 
ATOM     42  CG1 VAL A   1       2.178   6.192  10.715  0.00  0.00    +0.002 C 
ENDBRANCH  39  40
BRANCH  39  43
ATOM     43  N   VAL A   1       4.766   6.971   7.990  0.00  0.00    -0.238 NA
ATOM     44  H   VAL A   1       5.238   6.044   7.981  0.00  0.00    +0.142 HD
ENDBRANCH  39  43
ENDBRANCH  35  39
ENDBRANCH  34  37
BRANCH  34  45
ATOM     45  CB  THR A   2       2.366  11.715   9.388  0.00  0.00    +0.137 C 
ATOM     46  CG2 THR A   2       3.545  11.909   8.453  0.00  0.00    +0.034 C 
BRANCH  45  47
ATOM     47  OG1 THR A   2       1.167  11.444   8.631  0.00  0.00    -0.382 OA
ATOM     48  HG1 THR A   2       1.013  12.178   7.985  0.00  0.00    +0.210 HD
ENDBRANCH  45  47
ENDBRANCH  34  45
ENDBRANCH  30  34
ENDBRANCH  29  32
BRANCH  29  49
ATOM     49  CB  ASP A   3      -0.789   8.191  13.013  0.00  0.00    +0.143 C 
BRANCH  49  50
ATOM     50  CG  ASP A   3       0.229   7.157  13.492  0.00  0.00    +0.367 C 
ATOM     51  OD2 ASP A   3       1.359   7.513  13.903  0.00  0.00    -0.246 OA
ATOM     52  OD1 ASP A   3      -0.118   5.956  13.471  0.00  0.00    -0.246 OA
ENDBRANCH  49  50
ENDBRANCH  29  49
ENDBRANCH   1  29
TORSDOF 20
REMARK  Name = ../refined-set-2016/2xpk/2xpk_pocket.pdb
REMARK  226 active torsions:
REMARK  status: ('A' for Active; 'I' for Inactive)
REMARK    1  A    between atoms: _1  and  _3
REMARK    2  A    between atoms: _3  and  _4
REMARK    3  A    between atoms: _3  and  _6
REMARK    4  A    between atoms: _9  and  _11
REMARK    5  A    between atoms: _11  and  _12
REMARK    6  A    between atoms: _11  and  _14
REMARK    7  A    between atoms: _14  and  _15
REMARK    8  A    between atoms: _15  and  _16
REMARK    9  A    between atoms: _19  and  _21
REMARK   10  A    between atoms: _21  and  _22
REMARK   11  A    between atoms: _24  and  _26
REMARK   12  A    between atoms: _26  and  _27
REMARK   13  A    between atoms: _26  and  _29
REMARK   14  A    between atoms: _29  and  _30
REMARK   15  A    between atoms: _36  and  _38
REMARK   16  A    between atoms: _38  and  _39
REMARK   17  A    between atoms: _38  and  _41
REMARK   18  A    between atoms: _41  and  _42
REMARK   19  A    between atoms: _47  and  _48
REMARK   20  A    between atoms: _50  and  _52
REMARK   21  A    between atoms: _52  and  _53
REMARK   22  A    between atoms: _55  and  _57
REMARK   23  A    between atoms: _57  and  _58
REMARK   24  A    between atoms: _62  and  _63
REMARK   25  A    between atoms: _68  and  _70
REMARK   26  A    between atoms: _70  and  _71
REMARK   27  A    between atoms: _70  and  _73
REMARK   28  A    between atoms: _73  and  _74
REMARK   29  A    between atoms: _74  and  _75
REMARK   30  A    between atoms: _75  and  _76
REMARK   31  A    between atoms: _76  and  _77
REMARK   32  A    between atoms: _81  and  _83
REMARK   33  A    between atoms: _83  and  _84
REMARK   34  A    between atoms: _83  and  _86
REMARK   35  A    between atoms: _86  and  _87
REMARK   36  A    between atoms: _90  and  _92
REMARK   37  A    between atoms: _92  and  _93
REMARK   38  A    between atoms: _92  and  _95
REMARK   39  A    between atoms: _95  and  _96
REMARK   40  A    between atoms: _101  and  _103
REMARK   41  A    between atoms: _103  and  _104
REMARK   42  A    between atoms: _103  and  _106
REMARK   43  A    between atoms: _106  and  _107
REMARK   44  A    between atoms: _107  and  _108
REMARK   45  A    between atoms: _108  and  _109
REMARK   46  A    between atoms: _118  and  _120
REMARK   47  A    between atoms: _120  and  _121
REMARK   48  A    between atoms: _120  and  _123
REMARK   49  A    between atoms: _123  and  _124
REMARK   50  A    between atoms: _126  and  _128
REMARK   51  A    between atoms: _128  and  _129
REMARK   52  A    between atoms: _128  and  _131
REMARK   53  A    between atoms: _131  and  _132
REMARK   54  A    between atoms: _137  and  _138
REMARK   55  A    between atoms: _140  and  _142
REMARK   56  A    between atoms: _142  and  _143
REMARK   57  A    between atoms: _142  and  _145
REMARK   58  A    between atoms: _145  and  _146
REMARK   59  A    between atoms: _156  and  _158
REMARK   60  A    between atoms: _158  and  _159
REMARK   61  A    between atoms: _158  and  _161
REMARK   62  A    between atoms: _161  and  _162
REMARK   63  A    between atoms: _165  and  _167
REMARK   64  A    between atoms: _167  and  _168
REMARK   65  A    between atoms: _167  and  _170
REMARK   66  A    between atoms: _170  and  _171
REMARK   67  A    between atoms: _174  and  _176
REMARK   68  A    between atoms: _176  and  _177
REMARK   69  A    between atoms: _176  and  _179
REMARK   70  A    between atoms: _179  and  _180
REMARK   71  A    between atoms: _183  and  _185
REMARK   72  A    between atoms: _185  and  _186
REMARK   73  A    between atoms: _185  and  _188
REMARK   74  A    between atoms: _188  and  _189
REMARK   75  A    between atoms: _192  and  _194
REMARK   76  A    between atoms: _194  and  _195
REMARK   77  A    between atoms: _194  and  _197
REMARK   78  A    between atoms: _200  and  _201
REMARK   79  A    between atoms: _206  and  _208
REMARK   80  A    between atoms: _208  and  _209
REMARK   81  A    between atoms: _208  and  _211
REMARK   82  A    between atoms: _211  and  _212
REMARK   83  A    between atoms: _215  and  _217
REMARK   84  A    between atoms: _217  and  _218
REMARK   85  A    between atoms: _217  and  _220
REMARK   86  A    between atoms: _220  and  _221
REMARK   87  A    between atoms: _221  and  _222
REMARK   88  A    between atoms: _225  and  _227
REMARK   89  A    between atoms: _227  and  _228
REMARK   90  A    between atoms: _227  and  _230
REMARK   91  A    between atoms: _230  and  _231
REMARK   92  A    between atoms: _236  and  _237
REMARK   93  A    between atoms: _239  and  _241
REMARK   94  A    between atoms: _241  and  _242
REMARK   95  A    between atoms: _241  and  _244
REMARK   96  A    between atoms: _244  and  _245
REMARK   97  A    between atoms: _248  and  _250
REMARK   98  A    between atoms: _250  and  _251
REMARK   99  A    between atoms: _250  and  _253
REMARK  100  A    between atoms: _256  and  _258
REMARK  101  A    between atoms: _258  and  _259
REMARK  102  A    between atoms: _258  and  _261
REMARK  103  A    between atoms: _261  and  _262
REMARK  104  A    between atoms: _262  and  _263
REMARK  105  A    between atoms: _265  and  _267
REMARK  106  A    between atoms: _267  and  _268
REMARK  107  A    between atoms: _267  and  _270
REMARK  108  A    between atoms: _270  and  _271
REMARK  109  A    between atoms: _281  and  _283
REMARK  110  A    between atoms: _283  and  _284
REMARK  111  A    between atoms: _283  and  _286
REMARK  112  A    between atoms: _286  and  _287
REMARK  113  A    between atoms: _290  and  _292
REMARK  114  A    between atoms: _292  and  _293
REMARK  115  A    between atoms: _295  and  _297
REMARK  116  A    between atoms: _297  and  _298
REMARK  117  A    between atoms: _300  and  _302
REMARK  118  A    between atoms: _302  and  _303
REMARK  119  A    between atoms: _302  and  _305
REMARK  120  A    between atoms: _308  and  _310
REMARK  121  A    between atoms: _310  and  _311
REMARK  122  A    between atoms: _310  and  _313
REMARK  123  A    between atoms: _316  and  _318
REMARK  124  A    between atoms: _318  and  _319
REMARK  125  A    between atoms: _322  and  _324
REMARK  126  A    between atoms: _324  and  _325
REMARK  127  A    between atoms: _324  and  _327
REMARK  128  A    between atoms: _330  and  _332
REMARK  129  A    between atoms: _332  and  _333
REMARK  130  A    between atoms: _332  and  _335
REMARK  131  A    between atoms: _335  and  _336
REMARK  132  A    between atoms: _346  and  _348
REMARK  133  A    between atoms: _348  and  _349
REMARK  134  A    between atoms: _348  and  _351
REMARK  135  A    between atoms: _351  and  _352
REMARK  136  A    between atoms: _362  and  _364
REMARK  137  A    between atoms: _364  and  _365
REMARK  138  A    between atoms: _364  and  _367
REMARK  139  A    between atoms: _367  and  _368
REMARK  140  A    between atoms: _373  and  _375
REMARK  141  A    between atoms: _375  and  _376
REMARK  142  A    between atoms: _375  and  _378
REMARK  143  A    between atoms: _378  and  _379
REMARK  144  A    between atoms: _384  and  _385
REMARK  145  A    between atoms: _387  and  _389
REMARK  146  A    between atoms: _389  and  _390
REMARK  147  A    between atoms: _389  and  _392
REMARK  148  A    between atoms: _395  and  _397
REMARK  149  A    between atoms: _397  and  _398
REMARK  150  A    between atoms: _397  and  _400
REMARK  151  A    between atoms: _400  and  _401
REMARK  152  A    between atoms: _404  and  _406
REMARK  153  A    between atoms: _406  and  _407
REMARK  154  A    between atoms: _406  and  _409
REMARK  155  A    between atoms: _409  and  _410
REMARK  156  A    between atoms: _413  and  _415
REMARK  157  A    between atoms: _415  and  _416
REMARK  158  A    between atoms: _415  and  _418
REMARK  159  A    between atoms: _418  and  _419
REMARK  160  A    between atoms: _424  and  _425
REMARK  161  A    between atoms: _427  and  _429
REMARK  162  A    between atoms: _429  and  _430
REMARK  163  A    between atoms: _429  and  _432
REMARK  164  A    between atoms: _432  and  _433
REMARK  165  A    between atoms: _439  and  _441
REMARK  166  A    between atoms: _441  and  _442
REMARK  167  A    between atoms: _441  and  _444
REMARK  168  A    between atoms: _444  and  _445
REMARK  169  A    between atoms: _448  and  _450
REMARK  170  A    between atoms: _450  and  _451
REMARK  171  A    between atoms: _450  and  _453
REMARK  172  A    between atoms: _453  and  _454
REMARK  173  A    between atoms: _460  and  _461
REMARK  174  A    between atoms: _466  and  _468
REMARK  175  A    between atoms: _468  and  _469
REMARK  176  A    between atoms: _468  and  _471
REMARK  177  A    between atoms: _471  and  _472
REMARK  178  A    between atoms: _477  and  _479
REMARK  179  A    between atoms: _479  and  _480
REMARK  180  A    between atoms: _479  and  _482
REMARK  181  A    between atoms: _482  and  _483
REMARK  182  A    between atoms: _493  and  _495
REMARK  183  A    between atoms: _495  and  _496
REMARK  184  A    between atoms: _499  and  _501
REMARK  185  A    between atoms: _501  and  _502
REMARK  186  A    between atoms: _501  and  _504
REMARK  187  A    between atoms: _504  and  _505
REMARK  188  A    between atoms: _508  and  _510
REMARK  189  A    between atoms: _510  and  _511
REMARK  190  A    between atoms: _510  and  _513
REMARK  191  A    between atoms: _513  and  _514
REMARK  192  A    between atoms: _516  and  _518
REMARK  193  A    between atoms: _518  and  _519
REMARK  194  A    between atoms: _518  and  _521
REMARK  195  A    between atoms: _521  and  _522
REMARK  196  A    between atoms: _524  and  _526
REMARK  197  A    between atoms: _526  and  _527
REMARK  198  A    between atoms: _526  and  _529
REMARK  199  A    between atoms: _529  and  _530
REMARK  200  A    between atoms: _530  and  _531
REMARK  201  A    between atoms: _531  and  _532
REMARK  202  A    between atoms: _532  and  _533
REMARK  203  A    between atoms: _537  and  _539
REMARK  204  A    between atoms: _539  and  _540
REMARK  205  A    between atoms: _539  and  _542
REMARK  206  A    between atoms: _542  and  _543
REMARK  207  A    between atoms: _549  and  _551
REMARK  208  A    between atoms: _551  and  _552
REMARK  209  A    between atoms: _551  and  _554
REMARK  210  A    between atoms: _554  and  _555
REMARK  211  A    between atoms: _558  and  _560
REMARK  212  A    between atoms: _560  and  _561
REMARK  213  A    between atoms: _560  and  _563
REMARK  214  A    between atoms: _563  and  _564
REMARK  215  A    between atoms: _567  and  _569
REMARK  216  A    between atoms: _569  and  _570
REMARK  217  A    between atoms: _569  and  _572
REMARK  218  A    between atoms: _572  and  _573
REMARK  219  A    between atoms: _576  and  _578
REMARK  220  A    between atoms: _578  and  _579
REMARK  221  A    between atoms: _578  and  _581
REMARK  222  A    between atoms: _581  and  _582
REMARK  223  A    between atoms: _585  and  _587
REMARK  224  A    between atoms: _587  and  _588
REMARK  225  A    between atoms: _587  and  _590
REMARK  226  A    between atoms: _590  and  _591
REMARK                            x       y       z     vdW  Elec       q    Type
REMARK                         _______ _______ _______ _____ _____    ______ ____
ROOT
ATOM      1  CA  THR A   1       7.407  -3.484   5.385  0.00  0.00    +0.160 C 
ENDROOT
BRANCH   1   2
ATOM      2  N   THR A   1       8.616  -4.261   5.717  0.00  0.00    -0.237 NA
ATOM      3  H   THR A   1       8.946  -4.292   6.703  0.00  0.00    +0.142 HD
ENDBRANCH   1   2
BRANCH   1   4
ATOM      4  C   THR A   1       7.506  -2.080   5.969  0.00  0.00    +0.227 C 
ATOM      5  O   THR A   1       8.186  -1.854   6.979  0.00  0.00    -0.287 OA
ENDBRANCH   1   4
BRANCH   1   6
ATOM      6  CB  THR A   1       6.091  -4.126   5.934  0.00  0.00    +0.134 C 
ATOM      7  CG2 THR A   1       5.816  -5.530   5.350  0.00  0.00    +0.034 C 
BRANCH   6   8
ATOM      8  OG1 THR A   1       6.160  -4.211   7.359  0.00  0.00    -0.383 OA
ATOM      9  HG1 THR A   1       6.934  -4.771   7.618  0.00  0.00    +0.210 HD
ENDBRANCH   6   8
ENDBRANCH   1   6
TORSDOF 4
REMARK  Name = ../refined-set-2016/2xpk/2xpk_pocket.pdb
REMARK  226 active torsions:
REMARK  status: ('A' for Active; 'I' for Inactive)
REMARK    1  A    between atoms: _1  and  _3
REMARK    2  A    between atoms: _3  and  _4
REMARK    3  A    between atoms: _3  and  _6
REMARK    4  A    between atoms: _9  and  _11
REMARK    5  A    between atoms: _11  and  _12
REMARK    6  A    between atoms: _11  and  _14
REMARK    7  A    between atoms: _14  and  _15
REMARK    8  A    between atoms: _15  and  _16
REMARK    9  A    between atoms: _19  and  _21
REMARK   10  A    between atoms: _21  and  _22
REMARK   11  A    between atoms: _24  and  _26
REMARK   12  A    between atoms: _26  and  _27
REMARK   13  A    between atoms: _26  and  _29
REMARK   14  A    between atoms: _29  and  _30
REMARK   15  A    between atoms: _36  and  _38
REMARK   16  A    between atoms: _38  and  _39
REMARK   17  A    between atoms: _38  and  _41
REMARK   18  A    between atoms: _41  and  _42
REMARK   19  A    between atoms: _47  and  _48
REMARK   20  A    between atoms: _50  and  _52
REMARK   21  A    between atoms: _52  and  _53
REMARK   22  A    between atoms: _55  and  _57
REMARK   23  A    between atoms: _57  and  _58
REMARK   24  A    between atoms: _62  and  _63
REMARK   25  A    between atoms: _68  and  _70
REMARK   26  A    between atoms: _70  and  _71
REMARK   27  A    between atoms: _70  and  _73
REMARK   28  A    between atoms: _73  and  _74
REMARK   29  A    between atoms: _74  and  _75
REMARK   30  A    between atoms: _75  and  _76
REMARK   31  A    between atoms: _76  and  _77
REMARK   32  A    between atoms: _81  and  _83
REMARK   33  A    between atoms: _83  and  _84
REMARK   34  A    between atoms: _83  and  _86
REMARK   35  A    between atoms: _86  and  _87
REMARK   36  A    between atoms: _90  and  _92
REMARK   37  A    between atoms: _92  and  _93
REMARK   38  A    between atoms: _92  and  _95
REMARK   39  A    between atoms: _95  and  _96
REMARK   40  A    between atoms: _101  and  _103
REMARK   41  A    between atoms: _103  and  _104
REMARK   42  A    between atoms: _103  and  _106
REMARK   43  A    between atoms: _106  and  _107
REMARK   44  A    between atoms: _107  and  _108
REMARK   45  A    between atoms: _108  and  _109
REMARK   46  A    between atoms: _118  and  _120
REMARK   47  A    between atoms: _120  and  _121
REMARK   48  A    between atoms: _120  and  _123
REMARK   49  A    between atoms: _123  and  _124
REMARK   50  A    between atoms: _126  and  _128
REMARK   51  A    between atoms: _128  and  _129
REMARK   52  A    between atoms: _128  and  _131
REMARK   53  A    between atoms: _131  and  _132
REMARK   54  A    between atoms: _137  and  _138
REMARK   55  A    between atoms: _140  and  _142
REMARK   56  A    between atoms: _142  and  _143
REMARK   57  A    between atoms: _142  and  _145
REMARK   58  A    between atoms: _145  and  _146
REMARK   59  A    between atoms: _156  and  _158
REMARK   60  A    between atoms: _158  and  _159
REMARK   61  A    between atoms: _158  and  _161
REMARK   62  A    between atoms: _161  and  _162
REMARK   63  A    between atoms: _165  and  _167
REMARK   64  A    between atoms: _167  and  _168
REMARK   65  A    between atoms: _167  and  _170
REMARK   66  A    between atoms: _170  and  _171
REMARK   67  A    between atoms: _174  and  _176
REMARK   68  A    between atoms: _176  and  _177
REMARK   69  A    between atoms: _176  and  _179
REMARK   70  A    between atoms: _179  and  _180
REMARK   71  A    between atoms: _183  and  _185
REMARK   72  A    between atoms: _185  and  _186
REMARK   73  A    between atoms: _185  and  _188
REMARK   74  A    between atoms: _188  and  _189
REMARK   75  A    between atoms: _192  and  _194
REMARK   76  A    between atoms: _194  and  _195
REMARK   77  A    between atoms: _194  and  _197
REMARK   78  A    between atoms: _200  and  _201
REMARK   79  A    between atoms: _206  and  _208
REMARK   80  A    between atoms: _208  and  _209
REMARK   81  A    between atoms: _208  and  _211
REMARK   82  A    between atoms: _211  and  _212
REMARK   83  A    between atoms: _215  and  _217
REMARK   84  A    between atoms: _217  and  _218
REMARK   85  A    between atoms: _217  and  _220
REMARK   86  A    between atoms: _220  and  _221
REMARK   87  A    between atoms: _221  and  _222
REMARK   88  A    between atoms: _225  and  _227
REMARK   89  A    between atoms: _227  and  _228
REMARK   90  A    between atoms: _227  and  _230
REMARK   91  A    between atoms: _230  and  _231
REMARK   92  A    between atoms: _236  and  _237
REMARK   93  A    between atoms: _239  and  _241
REMARK   94  A    between atoms: _241  and  _242
REMARK   95  A    between atoms: _241  and  _244
REMARK   96  A    between atoms: _244  and  _245
REMARK   97  A    between atoms: _248  and  _250
REMARK   98  A    between atoms: _250  and  _251
REMARK   99  A    between atoms: _250  and  _253
REMARK  100  A    between atoms: _256  and  _258
REMARK  101  A    between atoms: _258  and  _259
REMARK  102  A    between atoms: _258  and  _261
REMARK  103  A    between atoms: _261  and  _262
REMARK  104  A    between atoms: _262  and  _263
REMARK  105  A    between atoms: _265  and  _267
REMARK  106  A    between atoms: _267  and  _268
REMARK  107  A    between atoms: _267  and  _270
REMARK  108  A    between atoms: _270  and  _271
REMARK  109  A    between atoms: _281  and  _283
REMARK  110  A    between atoms: _283  and  _284
REMARK  111  A    between atoms: _283  and  _286
REMARK  112  A    between atoms: _286  and  _287
REMARK  113  A    between atoms: _290  and  _292
REMARK  114  A    between atoms: _292  and  _293
REMARK  115  A    between atoms: _295  and  _297
REMARK  116  A    between atoms: _297  and  _298
REMARK  117  A    between atoms: _300  and  _302
REMARK  118  A    between atoms: _302  and  _303
REMARK  119  A    between atoms: _302  and  _305
REMARK  120  A    between atoms: _308  and  _310
REMARK  121  A    between atoms: _310  and  _311
REMARK  122  A    between atoms: _310  and  _313
REMARK  123  A    between atoms: _316  and  _318
REMARK  124  A    between atoms: _318  and  _319
REMARK  125  A    between atoms: _322  and  _324
REMARK  126  A    between atoms: _324  and  _325
REMARK  127  A    between atoms: _324  and  _327
REMARK  128  A    between atoms: _330  and  _332
REMARK  129  A    between atoms: _332  and  _333
REMARK  130  A    between atoms: _332  and  _335
REMARK  131  A    between atoms: _335  and  _336
REMARK  132  A    between atoms: _346  and  _348
REMARK  133  A    between atoms: _348  and  _349
REMARK  134  A    between atoms: _348  and  _351
REMARK  135  A    between atoms: _351  and  _352
REMARK  136  A    between atoms: _362  and  _364
REMARK  137  A    between atoms: _364  and  _365
REMARK  138  A    between atoms: _364  and  _367
REMARK  139  A    between atoms: _367  and  _368
REMARK  140  A    between atoms: _373  and  _375
REMARK  141  A    between atoms: _375  and  _376
REMARK  142  A    between atoms: _375  and  _378
REMARK  143  A    between atoms: _378  and  _379
REMARK  144  A    between atoms: _384  and  _385
REMARK  145  A    between atoms: _387  and  _389
REMARK  146  A    between atoms: _389  and  _390
REMARK  147  A    between atoms: _389  and  _392
REMARK  148  A    between atoms: _395  and  _397
REMARK  149  A    between atoms: _397  and  _398
REMARK  150  A    between atoms: _397  and  _400
REMARK  151  A    between atoms: _400  and  _401
REMARK  152  A    between atoms: _404  and  _406
REMARK  153  A    between atoms: _406  and  _407
REMARK  154  A    between atoms: _406  and  _409
REMARK  155  A    between atoms: _409  and  _410
REMARK  156  A    between atoms: _413  and  _415
REMARK  157  A    between atoms: _415  and  _416
REMARK  158  A    between atoms: _415  and  _418
REMARK  159  A    between atoms: _418  and  _419
REMARK  160  A    between atoms: _424  and  _425
REMARK  161  A    between atoms: _427  and  _429
REMARK  162  A    between atoms: _429  and  _430
REMARK  163  A    between atoms: _429  and  _432
REMARK  164  A    between atoms: _432  and  _433
REMARK  165  A    between atoms: _439  and  _441
REMARK  166  A    between atoms: _441  and  _442
REMARK  167  A    between atoms: _441  and  _444
REMARK  168  A    between atoms: _444  and  _445
REMARK  169  A    between atoms: _448  and  _450
REMARK  170  A    between atoms: _450  and  _451
REMARK  171  A    between atoms: _450  and  _453
REMARK  172  A    between atoms: _453  and  _454
REMARK  173  A    between atoms: _460  and  _461
REMARK  174  A    between atoms: _466  and  _468
REMARK  175  A    between atoms: _468  and  _469
REMARK  176  A    between atoms: _468  and  _471
REMARK  177  A    between atoms: _471  and  _472
REMARK  178  A    between atoms: _477  and  _479
REMARK  179  A    between atoms: _479  and  _480
REMARK  180  A    between atoms: _479  and  _482
REMARK  181  A    between atoms: _482  and  _483
REMARK  182  A    between atoms: _493  and  _495
REMARK  183  A    between atoms: _495  and  _496
REMARK  184  A    between atoms: _499  and  _501
REMARK  185  A    between atoms: _501  and  _502
REMARK  186  A    between atoms: _501  and  _504
REMARK  187  A    between atoms: _504  and  _505
REMARK  188  A    between atoms: _508  and  _510
REMARK  189  A    between atoms: _510  and  _511
REMARK  190  A    between atoms: _510  and  _513
REMARK  191  A    between atoms: _513  and  _514
REMARK  192  A    between atoms: _516  and  _518
REMARK  193  A    between atoms: _518  and  _519
REMARK  194  A    between atoms: _518  and  _521
REMARK  195  A    between atoms: _521  and  _522
REMARK  196  A    between atoms: _524  and  _526
REMARK  197  A    between atoms: _526  and  _527
REMARK  198  A    between atoms: _526  and  _529
REMARK  199  A    between atoms: _529  and  _530
REMARK  200  A    between atoms: _530  and  _531
REMARK  201  A    between atoms: _531  and  _532
REMARK  202  A    between atoms: _532  and  _533
REMARK  203  A    between atoms: _537  and  _539
REMARK  204  A    between atoms: _539  and  _540
REMARK  205  A    between atoms: _539  and  _542
REMARK  206  A    between atoms: _542  and  _543
REMARK  207  A    between atoms: _549  and  _551
REMARK  208  A    between atoms: _551  and  _552
REMARK  209  A    between atoms: _551  and  _554
REMARK  210  A    between atoms: _554  and  _555
REMARK  211  A    between atoms: _558  and  _560
REMARK  212  A    between atoms: _560  and  _561
REMARK  213  A    between atoms: _560  and  _563
REMARK  214  A    between atoms: _563  and  _564
REMARK  215  A    between atoms: _567  and  _569
REMARK  216  A    between atoms: _569  and  _570
REMARK  217  A    between atoms: _569  and  _572
REMARK  218  A    between atoms: _572  and  _573
REMARK  219  A    between atoms: _576  and  _578
REMARK  220  A    between atoms: _578  and  _579
REMARK  221  A    between atoms: _578  and  _581
REMARK  222  A    between atoms: _581  and  _582
REMARK  223  A    between atoms: _585  and  _587
REMARK  224  A    between atoms: _587  and  _588
REMARK  225  A    between atoms: _587  and  _590
REMARK  226  A    between atoms: _590  and  _591
REMARK                            x       y       z     vdW  Elec       q    Type
REMARK                         _______ _______ _______ _____ _____    ______ ____
ROOT
ATOM      1  CA  ASN A   1       3.845   1.813   7.783  0.00  0.00    +0.154 C 
ENDROOT
BRANCH   1   2
ATOM      2  C   ASN A   1       3.787   3.189   7.113  0.00  0.00    +0.242 C 
ATOM      3  O   ASN A   1       4.650   4.045   7.381  0.00  0.00    -0.273 OA
ATOM      4  N   PRO A   2       2.790   3.413   6.231  0.00  0.00    -0.273 N 
ATOM      5  CD  PRO A   2       1.898   2.346   5.745  0.00  0.00    +0.094 C 
ATOM      6  CG  PRO A   2       1.045   3.034   4.719  0.00  0.00    +0.024 C 
ATOM      7  CB  PRO A   2       1.844   4.208   4.231  0.00  0.00    +0.030 C 
ATOM      8  CA  PRO A   2       2.607   4.665   5.481  0.00  0.00    +0.140 C 
BRANCH   8   9
ATOM      9  C   PRO A   2       1.790   5.730   6.208  0.00  0.00    +0.227 C 
ATOM     10  O   PRO A   2       1.447   5.539   7.356  0.00  0.00    -0.286 OA
ENDBRANCH   8   9
ENDBRANCH   1   2
BRANCH   1  11
ATOM     11  N   ASN A   1       5.102   1.217   7.377  0.00  0.00    -0.238 NA
ATOM     12  H   ASN A   1       5.934   1.363   7.984  0.00  0.00    +0.142 HD
ENDBRANCH   1  11
BRANCH   1  13
ATOM     13  CB  ASN A   1       3.826   1.935   9.328  0.00  0.00    +0.111 C 
BRANCH  13  14
ATOM     14  CG  ASN A   1       2.431   2.181   9.913  0.00  0.00    +0.221 C 
ATOM     15  ND2 ASN A   1       2.384   2.558  11.201  0.00  0.00    -0.329 N 
ATOM     16 HD21 ASN A   1       3.264   2.661  11.745  0.00  0.00    +0.145 HD
ATOM     17 HD22 ASN A   1       1.467   2.747  11.654  0.00  0.00    +0.145 HD
ATOM     18  OD1 ASN A   1       1.421   2.045   9.226  0.00  0.00    -0.275 OA
ENDBRANCH  13  14
ENDBRANCH   1  13
TORSDOF 5
REMARK  Name = ../refined-set-2016/2xpk/2xpk_pocket.pdb
REMARK  226 active torsions:
REMARK  status: ('A' for Active; 'I' for Inactive)
REMARK    1  A    between atoms: _1  and  _3
REMARK    2  A    between atoms: _3  and  _4
REMARK    3  A    between atoms: _3  and  _6
REMARK    4  A    between atoms: _9  and  _11
REMARK    5  A    between atoms: _11  and  _12
REMARK    6  A    between atoms: _11  and  _14
REMARK    7  A    between atoms: _14  and  _15
REMARK    8  A    between atoms: _15  and  _16
REMARK    9  A    between atoms: _19  and  _21
REMARK   10  A    between atoms: _21  and  _22
REMARK   11  A    between atoms: _24  and  _26
REMARK   12  A    between atoms: _26  and  _27
REMARK   13  A    between atoms: _26  and  _29
REMARK   14  A    between atoms: _29  and  _30
REMARK   15  A    between atoms: _36  and  _38
REMARK   16  A    between atoms: _38  and  _39
REMARK   17  A    between atoms: _38  and  _41
REMARK   18  A    between atoms: _41  and  _42
REMARK   19  A    between atoms: _47  and  _48
REMARK   20  A    between atoms: _50  and  _52
REMARK   21  A    between atoms: _52  and  _53
REMARK   22  A    between atoms: _55  and  _57
REMARK   23  A    between atoms: _57  and  _58
REMARK   24  A    between atoms: _62  and  _63
REMARK   25  A    between atoms: _68  and  _70
REMARK   26  A    between atoms: _70  and  _71
REMARK   27  A    between atoms: _70  and  _73
REMARK   28  A    between atoms: _73  and  _74
REMARK   29  A    between atoms: _74  and  _75
REMARK   30  A    between atoms: _75  and  _76
REMARK   31  A    between atoms: _76  and  _77
REMARK   32  A    between atoms: _81  and  _83
REMARK   33  A    between atoms: _83  and  _84
REMARK   34  A    between atoms: _83  and  _86
REMARK   35  A    between atoms: _86  and  _87
REMARK   36  A    between atoms: _90  and  _92
REMARK   37  A    between atoms: _92  and  _93
REMARK   38  A    between atoms: _92  and  _95
REMARK   39  A    between atoms: _95  and  _96
REMARK   40  A    between atoms: _101  and  _103
REMARK   41  A    between atoms: _103  and  _104
REMARK   42  A    between atoms: _103  and  _106
REMARK   43  A    between atoms: _106  and  _107
REMARK   44  A    between atoms: _107  and  _108
REMARK   45  A    between atoms: _108  and  _109
REMARK   46  A    between atoms: _118  and  _120
REMARK   47  A    between atoms: _120  and  _121
REMARK   48  A    between atoms: _120  and  _123
REMARK   49  A    between atoms: _123  and  _124
REMARK   50  A    between atoms: _126  and  _128
REMARK   51  A    between atoms: _128  and  _129
REMARK   52  A    between atoms: _128  and  _131
REMARK   53  A    between atoms: _131  and  _132
REMARK   54  A    between atoms: _137  and  _138
REMARK   55  A    between atoms: _140  and  _142
REMARK   56  A    between atoms: _142  and  _143
REMARK   57  A    between atoms: _142  and  _145
REMARK   58  A    between atoms: _145  and  _146
REMARK   59  A    between atoms: _156  and  _158
REMARK   60  A    between atoms: _158  and  _159
REMARK   61  A    between atoms: _158  and  _161
REMARK   62  A    between atoms: _161  and  _162
REMARK   63  A    between atoms: _165  and  _167
REMARK   64  A    between atoms: _167  and  _168
REMARK   65  A    between atoms: _167  and  _170
REMARK   66  A    between atoms: _170  and  _171
REMARK   67  A    between atoms: _174  and  _176
REMARK   68  A    between atoms: _176  and  _177
REMARK   69  A    between atoms: _176  and  _179
REMARK   70  A    between atoms: _179  and  _180
REMARK   71  A    between atoms: _183  and  _185
REMARK   72  A    between atoms: _185  and  _186
REMARK   73  A    between atoms: _185  and  _188
REMARK   74  A    between atoms: _188  and  _189
REMARK   75  A    between atoms: _192  and  _194
REMARK   76  A    between atoms: _194  and  _195
REMARK   77  A    between atoms: _194  and  _197
REMARK   78  A    between atoms: _200  and  _201
REMARK   79  A    between atoms: _206  and  _208
REMARK   80  A    between atoms: _208  and  _209
REMARK   81  A    between atoms: _208  and  _211
REMARK   82  A    between atoms: _211  and  _212
REMARK   83  A    between atoms: _215  and  _217
REMARK   84  A    between atoms: _217  and  _218
REMARK   85  A    between atoms: _217  and  _220
REMARK   86  A    between atoms: _220  and  _221
REMARK   87  A    between atoms: _221  and  _222
REMARK   88  A    between atoms: _225  and  _227
REMARK   89  A    between atoms: _227  and  _228
REMARK   90  A    between atoms: _227  and  _230
REMARK   91  A    between atoms: _230  and  _231
REMARK   92  A    between atoms: _236  and  _237
REMARK   93  A    between atoms: _239  and  _241
REMARK   94  A    between atoms: _241  and  _242
REMARK   95  A    between atoms: _241  and  _244
REMARK   96  A    between atoms: _244  and  _245
REMARK   97  A    between atoms: _248  and  _250
REMARK   98  A    between atoms: _250  and  _251
REMARK   99  A    between atoms: _250  and  _253
REMARK  100  A    between atoms: _256  and  _258
REMARK  101  A    between atoms: _258  and  _259
REMARK  102  A    between atoms: _258  and  _261
REMARK  103  A    between atoms: _261  and  _262
REMARK  104  A    between atoms: _262  and  _263
REMARK  105  A    between atoms: _265  and  _267
REMARK  106  A    between atoms: _267  and  _268
REMARK  107  A    between atoms: _267  and  _270
REMARK  108  A    between atoms: _270  and  _271
REMARK  109  A    between atoms: _281  and  _283
REMARK  110  A    between atoms: _283  and  _284
REMARK  111  A    between atoms: _283  and  _286
REMARK  112  A    between atoms: _286  and  _287
REMARK  113  A    between atoms: _290  and  _292
REMARK  114  A    between atoms: _292  and  _293
REMARK  115  A    between atoms: _295  and  _297
REMARK  116  A    between atoms: _297  and  _298
REMARK  117  A    between atoms: _300  and  _302
REMARK  118  A    between atoms: _302  and  _303
REMARK  119  A    between atoms: _302  and  _305
REMARK  120  A    between atoms: _308  and  _310
REMARK  121  A    between atoms: _310  and  _311
REMARK  122  A    between atoms: _310  and  _313
REMARK  123  A    between atoms: _316  and  _318
REMARK  124  A    between atoms: _318  and  _319
REMARK  125  A    between atoms: _322  and  _324
REMARK  126  A    between atoms: _324  and  _325
REMARK  127  A    between atoms: _324  and  _327
REMARK  128  A    between atoms: _330  and  _332
REMARK  129  A    between atoms: _332  and  _333
REMARK  130  A    between atoms: _332  and  _335
REMARK  131  A    between atoms: _335  and  _336
REMARK  132  A    between atoms: _346  and  _348
REMARK  133  A    between atoms: _348  and  _349
REMARK  134  A    between atoms: _348  and  _351
REMARK  135  A    between atoms: _351  and  _352
REMARK  136  A    between atoms: _362  and  _364
REMARK  137  A    between atoms: _364  and  _365
REMARK  138  A    between atoms: _364  and  _367
REMARK  139  A    between atoms: _367  and  _368
REMARK  140  A    between atoms: _373  and  _375
REMARK  141  A    between atoms: _375  and  _376
REMARK  142  A    between atoms: _375  and  _378
REMARK  143  A    between atoms: _378  and  _379
REMARK  144  A    between atoms: _384  and  _385
REMARK  145  A    between atoms: _387  and  _389
REMARK  146  A    between atoms: _389  and  _390
REMARK  147  A    between atoms: _389  and  _392
REMARK  148  A    between atoms: _395  and  _397
REMARK  149  A    between atoms: _397  and  _398
REMARK  150  A    between atoms: _397  and  _400
REMARK  151  A    between atoms: _400  and  _401
REMARK  152  A    between atoms: _404  and  _406
REMARK  153  A    between atoms: _406  and  _407
REMARK  154  A    between atoms: _406  and  _409
REMARK  155  A    between atoms: _409  and  _410
REMARK  156  A    between atoms: _413  and  _415
REMARK  157  A    between atoms: _415  and  _416
REMARK  158  A    between atoms: _415  and  _418
REMARK  159  A    between atoms: _418  and  _419
REMARK  160  A    between atoms: _424  and  _425
REMARK  161  A    between atoms: _427  and  _429
REMARK  162  A    between atoms: _429  and  _430
REMARK  163  A    between atoms: _429  and  _432
REMARK  164  A    between atoms: _432  and  _433
REMARK  165  A    between atoms: _439  and  _441
REMARK  166  A    between atoms: _441  and  _442
REMARK  167  A    between atoms: _441  and  _444
REMARK  168  A    between atoms: _444  and  _445
REMARK  169  A    between atoms: _448  and  _450
REMARK  170  A    between atoms: _450  and  _451
REMARK  171  A    between atoms: _450  and  _453
REMARK  172  A    between atoms: _453  and  _454
REMARK  173  A    between atoms: _460  and  _461
REMARK  174  A    between atoms: _466  and  _468
REMARK  175  A    between atoms: _468  and  _469
REMARK  176  A    between atoms: _468  and  _471
REMARK  177  A    between atoms: _471  and  _472
REMARK  178  A    between atoms: _477  and  _479
REMARK  179  A    between atoms: _479  and  _480
REMARK  180  A    between atoms: _479  and  _482
REMARK  181  A    between atoms: _482  and  _483
REMARK  182  A    between atoms: _493  and  _495
REMARK  183  A    between atoms: _495  and  _496
REMARK  184  A    between atoms: _499  and  _501
REMARK  185  A    between atoms: _501  and  _502
REMARK  186  A    between atoms: _501  and  _504
REMARK  187  A    between atoms: _504  and  _505
REMARK  188  A    between atoms: _508  and  _510
REMARK  189  A    between atoms: _510  and  _511
REMARK  190  A    between atoms: _510  and  _513
REMARK  191  A    between atoms: _513  and  _514
REMARK  192  A    between atoms: _516  and  _518
REMARK  193  A    between atoms: _518  and  _519
REMARK  194  A    between atoms: _518  and  _521
REMARK  195  A    between atoms: _521  and  _522
REMARK  196  A    between atoms: _524  and  _526
REMARK  197  A    between atoms: _526  and  _527
REMARK  198  A    between atoms: _526  and  _529
REMARK  199  A    between atoms: _529  and  _530
REMARK  200  A    between atoms: _530  and  _531
REMARK  201  A    between atoms: _531  and  _532
REMARK  202  A    between atoms: _532  and  _533
REMARK  203  A    between atoms: _537  and  _539
REMARK  204  A    between atoms: _539  and  _540
REMARK  205  A    between atoms: _539  and  _542
REMARK  206  A    between atoms: _542  and  _543
REMARK  207  A    between atoms: _549  and  _551
REMARK  208  A    between atoms: _551  and  _552
REMARK  209  A    between atoms: _551  and  _554
REMARK  210  A    between atoms: _554  and  _555
REMARK  211  A    between atoms: _558  and  _560
REMARK  212  A    between atoms: _560  and  _561
REMARK  213  A    between atoms: _560  and  _563
REMARK  214  A    between atoms: _563  and  _564
REMARK  215  A    between atoms: _567  and  _569
REMARK  216  A    between atoms: _569  and  _570
REMARK  217  A    between atoms: _569  and  _572
REMARK  218  A    between atoms: _572  and  _573
REMARK  219  A    between atoms: _576  and  _578
REMARK  220  A    between atoms: _578  and  _579
REMARK  221  A    between atoms: _578  and  _581
REMARK  222  A    between atoms: _581  and  _582
REMARK  223  A    between atoms: _585  and  _587
REMARK  224  A    between atoms: _587  and  _588
REMARK  225  A    between atoms: _587  and  _590
REMARK  226  A    between atoms: _590  and  _591
REMARK                            x       y       z     vdW  Elec       q    Type
REMARK                         _______ _______ _______ _____ _____    ______ ____
ROOT
ATOM      1  CB  ASN A   1       6.748  14.167  17.861  0.00  0.00    +0.110 C 
ENDROOT
BRANCH   1   2
ATOM      2  CG  ASN A   1       7.296  13.089  18.826  0.00  0.00    +0.221 C 
ATOM      3  ND2 ASN A   1       6.391  12.304  19.421  0.00  0.00    -0.329 N 
ATOM      4 HD21 ASN A   1       6.700  11.559  20.078  0.00  0.00    +0.145 HD
ATOM      5 HD22 ASN A   1       5.378  12.438  19.227  0.00  0.00    +0.145 HD
ATOM      6  OD1 ASN A   1       8.500  12.967  19.025  0.00  0.00    -0.275 OA
ENDBRANCH   1   2
BRANCH   1   7
ATOM      7  CA  ASN A   1       7.791  15.224  17.467  0.00  0.00    +0.142 C 
BRANCH   7   8
ATOM      8  N   ASN A   1       8.820  14.699  16.529  0.00  0.00    -0.239 NA
ATOM      9  H   ASN A   1       9.143  13.717  16.639  0.00  0.00    +0.142 HD
ENDBRANCH   7   8
BRANCH   7  10
ATOM     10  C   ASN A   1       8.406  15.884  18.698  0.00  0.00    +0.225 C 
ATOM     11  O   ASN A   1       7.712  16.195  19.655  0.00  0.00    -0.287 OA
ENDBRANCH   7  10
ENDBRANCH   1   7
TORSDOF 4
REMARK  Name = ../refined-set-2016/2xpk/2xpk_pocket.pdb
REMARK  226 active torsions:
REMARK  status: ('A' for Active; 'I' for Inactive)
REMARK    1  A    between atoms: _1  and  _3
REMARK    2  A    between atoms: _3  and  _4
REMARK    3  A    between atoms: _3  and  _6
REMARK    4  A    between atoms: _9  and  _11
REMARK    5  A    between atoms: _11  and  _12
REMARK    6  A    between atoms: _11  and  _14
REMARK    7  A    between atoms: _14  and  _15
REMARK    8  A    between atoms: _15  and  _16
REMARK    9  A    between atoms: _19  and  _21
REMARK   10  A    between atoms: _21  and  _22
REMARK   11  A    between atoms: _24  and  _26
REMARK   12  A    between atoms: _26  and  _27
REMARK   13  A    between atoms: _26  and  _29
REMARK   14  A    between atoms: _29  and  _30
REMARK   15  A    between atoms: _36  and  _38
REMARK   16  A    between atoms: _38  and  _39
REMARK   17  A    between atoms: _38  and  _41
REMARK   18  A    between atoms: _41  and  _42
REMARK   19  A    between atoms: _47  and  _48
REMARK   20  A    between atoms: _50  and  _52
REMARK   21  A    between atoms: _52  and  _53
REMARK   22  A    between atoms: _55  and  _57
REMARK   23  A    between atoms: _57  and  _58
REMARK   24  A    between atoms: _62  and  _63
REMARK   25  A    between atoms: _68  and  _70
REMARK   26  A    between atoms: _70  and  _71
REMARK   27  A    between atoms: _70  and  _73
REMARK   28  A    between atoms: _73  and  _74
REMARK   29  A    between atoms: _74  and  _75
REMARK   30  A    between atoms: _75  and  _76
REMARK   31  A    between atoms: _76  and  _77
REMARK   32  A    between atoms: _81  and  _83
REMARK   33  A    between atoms: _83  and  _84
REMARK   34  A    between atoms: _83  and  _86
REMARK   35  A    between atoms: _86  and  _87
REMARK   36  A    between atoms: _90  and  _92
REMARK   37  A    between atoms: _92  and  _93
REMARK   38  A    between atoms: _92  and  _95
REMARK   39  A    between atoms: _95  and  _96
REMARK   40  A    between atoms: _101  and  _103
REMARK   41  A    between atoms: _103  and  _104
REMARK   42  A    between atoms: _103  and  _106
REMARK   43  A    between atoms: _106  and  _107
REMARK   44  A    between atoms: _107  and  _108
REMARK   45  A    between atoms: _108  and  _109
REMARK   46  A    between atoms: _118  and  _120
REMARK   47  A    between atoms: _120  and  _121
REMARK   48  A    between atoms: _120  and  _123
REMARK   49  A    between atoms: _123  and  _124
REMARK   50  A    between atoms: _126  and  _128
REMARK   51  A    between atoms: _128  and  _129
REMARK   52  A    between atoms: _128  and  _131
REMARK   53  A    between atoms: _131  and  _132
REMARK   54  A    between atoms: _137  and  _138
REMARK   55  A    between atoms: _140  and  _142
REMARK   56  A    between atoms: _142  and  _143
REMARK   57  A    between atoms: _142  and  _145
REMARK   58  A    between atoms: _145  and  _146
REMARK   59  A    between atoms: _156  and  _158
REMARK   60  A    between atoms: _158  and  _159
REMARK   61  A    between atoms: _158  and  _161
REMARK   62  A    between atoms: _161  and  _162
REMARK   63  A    between atoms: _165  and  _167
REMARK   64  A    between atoms: _167  and  _168
REMARK   65  A    between atoms: _167  and  _170
REMARK   66  A    between atoms: _170  and  _171
REMARK   67  A    between atoms: _174  and  _176
REMARK   68  A    between atoms: _176  and  _177
REMARK   69  A    between atoms: _176  and  _179
REMARK   70  A    between atoms: _179  and  _180
REMARK   71  A    between atoms: _183  and  _185
REMARK   72  A    between atoms: _185  and  _186
REMARK   73  A    between atoms: _185  and  _188
REMARK   74  A    between atoms: _188  and  _189
REMARK   75  A    between atoms: _192  and  _194
REMARK   76  A    between atoms: _194  and  _195
REMARK   77  A    between atoms: _194  and  _197
REMARK   78  A    between atoms: _200  and  _201
REMARK   79  A    between atoms: _206  and  _208
REMARK   80  A    between atoms: _208  and  _209
REMARK   81  A    between atoms: _208  and  _211
REMARK   82  A    between atoms: _211  and  _212
REMARK   83  A    between atoms: _215  and  _217
REMARK   84  A    between atoms: _217  and  _218
REMARK   85  A    between atoms: _217  and  _220
REMARK   86  A    between atoms: _220  and  _221
REMARK   87  A    between atoms: _221  and  _222
REMARK   88  A    between atoms: _225  and  _227
REMARK   89  A    between atoms: _227  and  _228
REMARK   90  A    between atoms: _227  and  _230
REMARK   91  A    between atoms: _230  and  _231
REMARK   92  A    between atoms: _236  and  _237
REMARK   93  A    between atoms: _239  and  _241
REMARK   94  A    between atoms: _241  and  _242
REMARK   95  A    between atoms: _241  and  _244
REMARK   96  A    between atoms: _244  and  _245
REMARK   97  A    between atoms: _248  and  _250
REMARK   98  A    between atoms: _250  and  _251
REMARK   99  A    between atoms: _250  and  _253
REMARK  100  A    between atoms: _256  and  _258
REMARK  101  A    between atoms: _258  and  _259
REMARK  102  A    between atoms: _258  and  _261
REMARK  103  A    between atoms: _261  and  _262
REMARK  104  A    between atoms: _262  and  _263
REMARK  105  A    between atoms: _265  and  _267
REMARK  106  A    between atoms: _267  and  _268
REMARK  107  A    between atoms: _267  and  _270
REMARK  108  A    between atoms: _270  and  _271
REMARK  109  A    between atoms: _281  and  _283
REMARK  110  A    between atoms: _283  and  _284
REMARK  111  A    between atoms: _283  and  _286
REMARK  112  A    between atoms: _286  and  _287
REMARK  113  A    between atoms: _290  and  _292
REMARK  114  A    between atoms: _292  and  _293
REMARK  115  A    between atoms: _295  and  _297
REMARK  116  A    between atoms: _297  and  _298
REMARK  117  A    between atoms: _300  and  _302
REMARK  118  A    between atoms: _302  and  _303
REMARK  119  A    between atoms: _302  and  _305
REMARK  120  A    between atoms: _308  and  _310
REMARK  121  A    between atoms: _310  and  _311
REMARK  122  A    between atoms: _310  and  _313
REMARK  123  A    between atoms: _316  and  _318
REMARK  124  A    between atoms: _318  and  _319
REMARK  125  A    between atoms: _322  and  _324
REMARK  126  A    between atoms: _324  and  _325
REMARK  127  A    between atoms: _324  and  _327
REMARK  128  A    between atoms: _330  and  _332
REMARK  129  A    between atoms: _332  and  _333
REMARK  130  A    between atoms: _332  and  _335
REMARK  131  A    between atoms: _335  and  _336
REMARK  132  A    between atoms: _346  and  _348
REMARK  133  A    between atoms: _348  and  _349
REMARK  134  A    between atoms: _348  and  _351
REMARK  135  A    between atoms: _351  and  _352
REMARK  136  A    between atoms: _362  and  _364
REMARK  137  A    between atoms: _364  and  _365
REMARK  138  A    between atoms: _364  and  _367
REMARK  139  A    between atoms: _367  and  _368
REMARK  140  A    between atoms: _373  and  _375
REMARK  141  A    between atoms: _375  and  _376
REMARK  142  A    between atoms: _375  and  _378
REMARK  143  A    between atoms: _378  and  _379
REMARK  144  A    between atoms: _384  and  _385
REMARK  145  A    between atoms: _387  and  _389
REMARK  146  A    between atoms: _389  and  _390
REMARK  147  A    between atoms: _389  and  _392
REMARK  148  A    between atoms: _395  and  _397
REMARK  149  A    between atoms: _397  and  _398
REMARK  150  A    between atoms: _397  and  _400
REMARK  151  A    between atoms: _400  and  _401
REMARK  152  A    between atoms: _404  and  _406
REMARK  153  A    between atoms: _406  and  _407
REMARK  154  A    between atoms: _406  and  _409
REMARK  155  A    between atoms: _409  and  _410
REMARK  156  A    between atoms: _413  and  _415
REMARK  157  A    between atoms: _415  and  _416
REMARK  158  A    between atoms: _415  and  _418
REMARK  159  A    between atoms: _418  and  _419
REMARK  160  A    between atoms: _424  and  _425
REMARK  161  A    between atoms: _427  and  _429
REMARK  162  A    between atoms: _429  and  _430
REMARK  163  A    between atoms: _429  and  _432
REMARK  164  A    between atoms: _432  and  _433
REMARK  165  A    between atoms: _439  and  _441
REMARK  166  A    between atoms: _441  and  _442
REMARK  167  A    between atoms: _441  and  _444
REMARK  168  A    between atoms: _444  and  _445
REMARK  169  A    between atoms: _448  and  _450
REMARK  170  A    between atoms: _450  and  _451
REMARK  171  A    between atoms: _450  and  _453
REMARK  172  A    between atoms: _453  and  _454
REMARK  173  A    between atoms: _460  and  _461
REMARK  174  A    between atoms: _466  and  _468
REMARK  175  A    between atoms: _468  and  _469
REMARK  176  A    between atoms: _468  and  _471
REMARK  177  A    between atoms: _471  and  _472
REMARK  178  A    between atoms: _477  and  _479
REMARK  179  A    between atoms: _479  and  _480
REMARK  180  A    between atoms: _479  and  _482
REMARK  181  A    between atoms: _482  and  _483
REMARK  182  A    between atoms: _493  and  _495
REMARK  183  A    between atoms: _495  and  _496
REMARK  184  A    between atoms: _499  and  _501
REMARK  185  A    between atoms: _501  and  _502
REMARK  186  A    between atoms: _501  and  _504
REMARK  187  A    between atoms: _504  and  _505
REMARK  188  A    between atoms: _508  and  _510
REMARK  189  A    between atoms: _510  and  _511
REMARK  190  A    between atoms: _510  and  _513
REMARK  191  A    between atoms: _513  and  _514
REMARK  192  A    between atoms: _516  and  _518
REMARK  193  A    between atoms: _518  and  _519
REMARK  194  A    between atoms: _518  and  _521
REMARK  195  A    between atoms: _521  and  _522
REMARK  196  A    between atoms: _524  and  _526
REMARK  197  A    between atoms: _526  and  _527
REMARK  198  A    between atoms: _526  and  _529
REMARK  199  A    between atoms: _529  and  _530
REMARK  200  A    between atoms: _530  and  _531
REMARK  201  A    between atoms: _531  and  _532
REMARK  202  A    between atoms: _532  and  _533
REMARK  203  A    between atoms: _537  and  _539
REMARK  204  A    between atoms: _539  and  _540
REMARK  205  A    between atoms: _539  and  _542
REMARK  206  A    between atoms: _542  and  _543
REMARK  207  A    between atoms: _549  and  _551
REMARK  208  A    between atoms: _551  and  _552
REMARK  209  A    between atoms: _551  and  _554
REMARK  210  A    between atoms: _554  and  _555
REMARK  211  A    between atoms: _558  and  _560
REMARK  212  A    between atoms: _560  and  _561
REMARK  213  A    between atoms: _560  and  _563
REMARK  214  A    between atoms: _563  and  _564
REMARK  215  A    between atoms: _567  and  _569
REMARK  216  A    between atoms: _569  and  _570
REMARK  217  A    between atoms: _569  and  _572
REMARK  218  A    between atoms: _572  and  _573
REMARK  219  A    between atoms: _576  and  _578
REMARK  220  A    between atoms: _578  and  _579
REMARK  221  A    between atoms: _578  and  _581
REMARK  222  A    between atoms: _581  and  _582
REMARK  223  A    between atoms: _585  and  _587
REMARK  224  A    between atoms: _587  and  _588
REMARK  225  A    between atoms: _587  and  _590
REMARK  226  A    between atoms: _590  and  _591
REMARK                            x       y       z     vdW  Elec       q    Type
REMARK                         _______ _______ _______ _____ _____    ______ ____
ROOT
ATOM      1  CA  TRP A   1      10.225  10.119  21.446  0.00  0.00    +0.149 C 
ENDROOT
BRANCH   1   2
ATOM      2  C   TRP A   1      10.380   9.696  19.979  0.00  0.00    +0.239 C 
ATOM      3  O   TRP A   1      11.015   8.677  19.708  0.00  0.00    -0.274 OA
ATOM      4  N   ALA A   2       9.825  10.473  19.049  0.00  0.00    -0.298 N 
ATOM      5  H   ALA A   2       9.444  11.400  19.327  0.00  0.00    +0.150 HD
BRANCH   4   6
ATOM      6  CA  ALA A   2       9.736  10.061  17.650  0.00  0.00    +0.137 C 
ATOM      7  CB  ALA A   2       8.273   9.976  17.198  0.00  0.00    +0.030 C 
BRANCH   6   8
ATOM      8  C   ALA A   2      10.546  10.920  16.696  0.00  0.00    +0.227 C 
ATOM      9  O   ALA A   2      10.308  12.136  16.580  0.00  0.00    -0.286 OA
ENDBRANCH   6   8
ENDBRANCH   4   6
ENDBRANCH   1   2
BRANCH   1  10
ATOM     10  N   TRP A   1       9.847  11.484  21.657  0.00  0.00    -0.238 NA
ATOM     11  H   TRP A   1       8.846  11.717  21.814  0.00  0.00    +0.142 HD
ENDBRANCH   1  10
BRANCH   1  12
ATOM     12  CB  TRP A   1       9.246   9.199  22.187  0.00  0.00    +0.054 C 
BRANCH  12  13
ATOM     13  CG  TRP A   1       7.841   9.298  21.713  0.00  0.00    -0.002 A 
ATOM     14  CD1 TRP A   1       6.873  10.128  22.192  0.00  0.00    +0.068 A 
ATOM     15  NE1 TRP A   1       5.691   9.929  21.507  0.00  0.00    -0.352 N 
ATOM     16  HE1 TRP A   1       4.800  10.439  21.675  0.00  0.00    +0.166 HD
ATOM     17  CE2 TRP A   1       5.884   8.952  20.572  0.00  0.00    +0.056 A 
ATOM     18  CZ2 TRP A   1       5.009   8.426  19.645  0.00  0.00    +0.017 A 
ATOM     19  CH2 TRP A   1       5.489   7.452  18.822  0.00  0.00    +0.001 A 
ATOM     20  CZ3 TRP A   1       6.825   6.991  18.911  0.00  0.00    +0.000 A 
ATOM     21  CE3 TRP A   1       7.691   7.521  19.821  0.00  0.00    +0.001 A 
ATOM     22  CD2 TRP A   1       7.228   8.517  20.685  0.00  0.00    +0.013 A 
ENDBRANCH  12  13
ENDBRANCH   1  12
TORSDOF 6
REMARK  Name = ../refined-set-2016/2xpk/2xpk_pocket.pdb
REMARK  226 active torsions:
REMARK  status: ('A' for Active; 'I' for Inactive)
REMARK    1  A    between atoms: _1  and  _3
REMARK    2  A    between atoms: _3  and  _4
REMARK    3  A    between atoms: _3  and  _6
REMARK    4  A    between atoms: _9  and  _11
REMARK    5  A    between atoms: _11  and  _12
REMARK    6  A    between atoms: _11  and  _14
REMARK    7  A    between atoms: _14  and  _15
REMARK    8  A    between atoms: _15  and  _16
REMARK    9  A    between atoms: _19  and  _21
REMARK   10  A    between atoms: _21  and  _22
REMARK   11  A    between atoms: _24  and  _26
REMARK   12  A    between atoms: _26  and  _27
REMARK   13  A    between atoms: _26  and  _29
REMARK   14  A    between atoms: _29  and  _30
REMARK   15  A    between atoms: _36  and  _38
REMARK   16  A    between atoms: _38  and  _39
REMARK   17  A    between atoms: _38  and  _41
REMARK   18  A    between atoms: _41  and  _42
REMARK   19  A    between atoms: _47  and  _48
REMARK   20  A    between atoms: _50  and  _52
REMARK   21  A    between atoms: _52  and  _53
REMARK   22  A    between atoms: _55  and  _57
REMARK   23  A    between atoms: _57  and  _58
REMARK   24  A    between atoms: _62  and  _63
REMARK   25  A    between atoms: _68  and  _70
REMARK   26  A    between atoms: _70  and  _71
REMARK   27  A    between atoms: _70  and  _73
REMARK   28  A    between atoms: _73  and  _74
REMARK   29  A    between atoms: _74  and  _75
REMARK   30  A    between atoms: _75  and  _76
REMARK   31  A    between atoms: _76  and  _77
REMARK   32  A    between atoms: _81  and  _83
REMARK   33  A    between atoms: _83  and  _84
REMARK   34  A    between atoms: _83  and  _86
REMARK   35  A    between atoms: _86  and  _87
REMARK   36  A    between atoms: _90  and  _92
REMARK   37  A    between atoms: _92  and  _93
REMARK   38  A    between atoms: _92  and  _95
REMARK   39  A    between atoms: _95  and  _96
REMARK   40  A    between atoms: _101  and  _103
REMARK   41  A    between atoms: _103  and  _104
REMARK   42  A    between atoms: _103  and  _106
REMARK   43  A    between atoms: _106  and  _107
REMARK   44  A    between atoms: _107  and  _108
REMARK   45  A    between atoms: _108  and  _109
REMARK   46  A    between atoms: _118  and  _120
REMARK   47  A    between atoms: _120  and  _121
REMARK   48  A    between atoms: _120  and  _123
REMARK   49  A    between atoms: _123  and  _124
REMARK   50  A    between atoms: _126  and  _128
REMARK   51  A    between atoms: _128  and  _129
REMARK   52  A    between atoms: _128  and  _131
REMARK   53  A    between atoms: _131  and  _132
REMARK   54  A    between atoms: _137  and  _138
REMARK   55  A    between atoms: _140  and  _142
REMARK   56  A    between atoms: _142  and  _143
REMARK   57  A    between atoms: _142  and  _145
REMARK   58  A    between atoms: _145  and  _146
REMARK   59  A    between atoms: _156  and  _158
REMARK   60  A    between atoms: _158  and  _159
REMARK   61  A    between atoms: _158  and  _161
REMARK   62  A    between atoms: _161  and  _162
REMARK   63  A    between atoms: _165  and  _167
REMARK   64  A    between atoms: _167  and  _168
REMARK   65  A    between atoms: _167  and  _170
REMARK   66  A    between atoms: _170  and  _171
REMARK   67  A    between atoms: _174  and  _176
REMARK   68  A    between atoms: _176  and  _177
REMARK   69  A    between atoms: _176  and  _179
REMARK   70  A    between atoms: _179  and  _180
REMARK   71  A    between atoms: _183  and  _185
REMARK   72  A    between atoms: _185  and  _186
REMARK   73  A    between atoms: _185  and  _188
REMARK   74  A    between atoms: _188  and  _189
REMARK   75  A    between atoms: _192  and  _194
REMARK   76  A    between atoms: _194  and  _195
REMARK   77  A    between atoms: _194  and  _197
REMARK   78  A    between atoms: _200  and  _201
REMARK   79  A    between atoms: _206  and  _208
REMARK   80  A    between atoms: _208  and  _209
REMARK   81  A    between atoms: _208  and  _211
REMARK   82  A    between atoms: _211  and  _212
REMARK   83  A    between atoms: _215  and  _217
REMARK   84  A    between atoms: _217  and  _218
REMARK   85  A    between atoms: _217  and  _220
REMARK   86  A    between atoms: _220  and  _221
REMARK   87  A    between atoms: _221  and  _222
REMARK   88  A    between atoms: _225  and  _227
REMARK   89  A    between atoms: _227  and  _228
REMARK   90  A    between atoms: _227  and  _230
REMARK   91  A    between atoms: _230  and  _231
REMARK   92  A    between atoms: _236  and  _237
REMARK   93  A    between atoms: _239  and  _241
REMARK   94  A    between atoms: _241  and  _242
REMARK   95  A    between atoms: _241  and  _244
REMARK   96  A    between atoms: _244  and  _245
REMARK   97  A    between atoms: _248  and  _250
REMARK   98  A    between atoms: _250  and  _251
REMARK   99  A    between atoms: _250  and  _253
REMARK  100  A    between atoms: _256  and  _258
REMARK  101  A    between atoms: _258  and  _259
REMARK  102  A    between atoms: _258  and  _261
REMARK  103  A    between atoms: _261  and  _262
REMARK  104  A    between atoms: _262  and  _263
REMARK  105  A    between atoms: _265  and  _267
REMARK  106  A    between atoms: _267  and  _268
REMARK  107  A    between atoms: _267  and  _270
REMARK  108  A    between atoms: _270  and  _271
REMARK  109  A    between atoms: _281  and  _283
REMARK  110  A    between atoms: _283  and  _284
REMARK  111  A    between atoms: _283  and  _286
REMARK  112  A    between atoms: _286  and  _287
REMARK  113  A    between atoms: _290  and  _292
REMARK  114  A    between atoms: _292  and  _293
REMARK  115  A    between atoms: _295  and  _297
REMARK  116  A    between atoms: _297  and  _298
REMARK  117  A    between atoms: _300  and  _302
REMARK  118  A    between atoms: _302  and  _303
REMARK  119  A    between atoms: _302  and  _305
REMARK  120  A    between atoms: _308  and  _310
REMARK  121  A    between atoms: _310  and  _311
REMARK  122  A    between atoms: _310  and  _313
REMARK  123  A    between atoms: _316  and  _318
REMARK  124  A    between atoms: _318  and  _319
REMARK  125  A    between atoms: _322  and  _324
REMARK  126  A    between atoms: _324  and  _325
REMARK  127  A    between atoms: _324  and  _327
REMARK  128  A    between atoms: _330  and  _332
REMARK  129  A    between atoms: _332  and  _333
REMARK  130  A    between atoms: _332  and  _335
REMARK  131  A    between atoms: _335  and  _336
REMARK  132  A    between atoms: _346  and  _348
REMARK  133  A    between atoms: _348  and  _349
REMARK  134  A    between atoms: _348  and  _351
REMARK  135  A    between atoms: _351  and  _352
REMARK  136  A    between atoms: _362  and  _364
REMARK  137  A    between atoms: _364  and  _365
REMARK  138  A    between atoms: _364  and  _367
REMARK  139  A    between atoms: _367  and  _368
REMARK  140  A    between atoms: _373  and  _375
REMARK  141  A    between atoms: _375  and  _376
REMARK  142  A    between atoms: _375  and  _378
REMARK  143  A    between atoms: _378  and  _379
REMARK  144  A    between atoms: _384  and  _385
REMARK  145  A    between atoms: _387  and  _389
REMARK  146  A    between atoms: _389  and  _390
REMARK  147  A    between atoms: _389  and  _392
REMARK  148  A    between atoms: _395  and  _397
REMARK  149  A    between atoms: _397  and  _398
REMARK  150  A    between atoms: _397  and  _400
REMARK  151  A    between atoms: _400  and  _401
REMARK  152  A    between atoms: _404  and  _406
REMARK  153  A    between atoms: _406  and  _407
REMARK  154  A    between atoms: _406  and  _409
REMARK  155  A    between atoms: _409  and  _410
REMARK  156  A    between atoms: _413  and  _415
REMARK  157  A    between atoms: _415  and  _416
REMARK  158  A    between atoms: _415  and  _418
REMARK  159  A    between atoms: _418  and  _419
REMARK  160  A    between atoms: _424  and  _425
REMARK  161  A    between atoms: _427  and  _429
REMARK  162  A    between atoms: _429  and  _430
REMARK  163  A    between atoms: _429  and  _432
REMARK  164  A    between atoms: _432  and  _433
REMARK  165  A    between atoms: _439  and  _441
REMARK  166  A    between atoms: _441  and  _442
REMARK  167  A    between atoms: _441  and  _444
REMARK  168  A    between atoms: _444  and  _445
REMARK  169  A    between atoms: _448  and  _450
REMARK  170  A    between atoms: _450  and  _451
REMARK  171  A    between atoms: _450  and  _453
REMARK  172  A    between atoms: _453  and  _454
REMARK  173  A    between atoms: _460  and  _461
REMARK  174  A    between atoms: _466  and  _468
REMARK  175  A    between atoms: _468  and  _469
REMARK  176  A    between atoms: _468  and  _471
REMARK  177  A    between atoms: _471  and  _472
REMARK  178  A    between atoms: _477  and  _479
REMARK  179  A    between atoms: _479  and  _480
REMARK  180  A    between atoms: _479  and  _482
REMARK  181  A    between atoms: _482  and  _483
REMARK  182  A    between atoms: _493  and  _495
REMARK  183  A    between atoms: _495  and  _496
REMARK  184  A    between atoms: _499  and  _501
REMARK  185  A    between atoms: _501  and  _502
REMARK  186  A    between atoms: _501  and  _504
REMARK  187  A    between atoms: _504  and  _505
REMARK  188  A    between atoms: _508  and  _510
REMARK  189  A    between atoms: _510  and  _511
REMARK  190  A    between atoms: _510  and  _513
REMARK  191  A    between atoms: _513  and  _514
REMARK  192  A    between atoms: _516  and  _518
REMARK  193  A    between atoms: _518  and  _519
REMARK  194  A    between atoms: _518  and  _521
REMARK  195  A    between atoms: _521  and  _522
REMARK  196  A    between atoms: _524  and  _526
REMARK  197  A    between atoms: _526  and  _527
REMARK  198  A    between atoms: _526  and  _529
REMARK  199  A    between atoms: _529  and  _530
REMARK  200  A    between atoms: _530  and  _531
REMARK  201  A    between atoms: _531  and  _532
REMARK  202  A    between atoms: _532  and  _533
REMARK  203  A    between atoms: _537  and  _539
REMARK  204  A    between atoms: _539  and  _540
REMARK  205  A    between atoms: _539  and  _542
REMARK  206  A    between atoms: _542  and  _543
REMARK  207  A    between atoms: _549  and  _551
REMARK  208  A    between atoms: _551  and  _552
REMARK  209  A    between atoms: _551  and  _554
REMARK  210  A    between atoms: _554  and  _555
REMARK  211  A    between atoms: _558  and  _560
REMARK  212  A    between atoms: _560  and  _561
REMARK  213  A    between atoms: _560  and  _563
REMARK  214  A    between atoms: _563  and  _564
REMARK  215  A    between atoms: _567  and  _569
REMARK  216  A    between atoms: _569  and  _570
REMARK  217  A    between atoms: _569  and  _572
REMARK  218  A    between atoms: _572  and  _573
REMARK  219  A    between atoms: _576  and  _578
REMARK  220  A    between atoms: _578  and  _579
REMARK  221  A    between atoms: _578  and  _581
REMARK  222  A    between atoms: _581  and  _582
REMARK  223  A    between atoms: _585  and  _587
REMARK  224  A    between atoms: _587  and  _588
REMARK  225  A    between atoms: _587  and  _590
REMARK  226  A    between atoms: _590  and  _591
REMARK                            x       y       z     vdW  Elec       q    Type
REMARK                         _______ _______ _______ _____ _____    ______ ____
ROOT
ATOM      1  C   SER A   2       5.910   5.345  25.355  0.00  0.00    +0.243 C 
ATOM      2  N   SER A   3       6.211   4.838  26.559  0.00  0.00    -0.295 N 
ATOM      3  H   SER A   3       6.388   5.497  27.344  0.00  0.00    +0.150 HD
ATOM      4  O   SER A   2       5.819   4.664  24.340  0.00  0.00    -0.273 OA
ENDROOT
BRANCH   2   5
ATOM      5  CA  SER A   3       6.303   3.387  26.825  0.00  0.00    +0.178 C 
BRANCH   5   6
ATOM      6  C   SER A   3       5.040   2.851  27.503  0.00  0.00    +0.243 C 
ATOM      7  O   SER A   3       5.056   1.756  28.074  0.00  0.00    -0.273 OA
ATOM      8  N   LYS A   4       3.959   3.633  27.452  0.00  0.00    -0.298 N 
ATOM      9  H   LYS A   4       4.017   4.508  26.892  0.00  0.00    +0.150 HD
BRANCH   8  10
ATOM     10  CA  LYS A   4       2.693   3.338  28.135  0.00  0.00    +0.137 C 
BRANCH  10  11
ATOM     11  C   LYS A   4       2.818   2.785  29.558  0.00  0.00    +0.227 C 
ATOM     12  O   LYS A   4       2.098   1.853  29.919  0.00  0.00    -0.286 OA
ENDBRANCH  10  11
BRANCH  10  13
ATOM     13  CB  LYS A   4       1.804   2.414  27.285  0.00  0.00    +0.028 C 
BRANCH  13  14
ATOM     14  CG  LYS A   4       0.666   3.126  26.541  0.00  0.00    -0.000 C 
BRANCH  14  15
ATOM     15  CD  LYS A   4       1.103   3.646  25.160  0.00  0.00    -0.024 C 
BRANCH  15  16
ATOM     16  CE  LYS A   4      -0.104   3.905  24.249  0.00  0.00    -0.086 C 
BRANCH  16  17
ATOM     17  NZ  LYS A   4      -0.769   2.626  23.811  0.00  0.00    +0.380 N 
ATOM     18  HZ1 LYS A   4      -1.100   2.105  24.648  0.00  0.00    -0.089 HD
ATOM     19  HZ2 LYS A   4      -0.086   2.044  23.286  0.00  0.00    -0.089 HD
ATOM     20  HZ3 LYS A   4      -1.579   2.850  23.198  0.00  0.00    -0.089 HD
ENDBRANCH  16  17
ENDBRANCH  15  16
ENDBRANCH  14  15
ENDBRANCH  13  14
ENDBRANCH  10  13
ENDBRANCH   8  10
ENDBRANCH   5   6
BRANCH   5  21
ATOM     21  CB  SER A   3       7.505   3.065  27.714  0.00  0.00    +0.166 C 
BRANCH  21  22
ATOM     22  OG  SER A   3       8.689   3.620  27.189  0.00  0.00    -0.380 OA
ATOM     23  H   SER A   3       8.593   4.604  27.130  0.00  0.00    +0.211 HD
ENDBRANCH  21  22
ENDBRANCH   5  21
ENDBRANCH   2   5
BRANCH   1  24
ATOM     24  CA  SER A   2       5.686   6.853  25.259  0.00  0.00    +0.178 C 
BRANCH  24  27
ATOM     25  C   LEU A   1       4.435   7.330  27.276  0.00  0.00    +0.238 C 
ATOM     26  O   LEU A   1       3.475   6.685  26.858  0.00  0.00    -0.274 OA
ATOM     27  N   SER A   2       5.549   7.485  26.570  0.00  0.00    -0.295 N 
ATOM     28  H   SER A   2       6.328   8.059  26.952  0.00  0.00    +0.150 HD
BRANCH  25  29
ATOM     29  CA  LEU A   1       4.401   7.981  28.662  0.00  0.00    +0.145 C 
BRANCH  29  30
ATOM     30  N   LEU A   1       5.665   7.885  29.394  0.00  0.00    -0.238 NA
ATOM     31  H   LEU A   1       6.220   8.741  29.599  0.00  0.00    +0.142 HD
ENDBRANCH  29  30
BRANCH  29  32
ATOM     32  CB  LEU A   1       3.910   9.426  28.579  0.00  0.00    +0.026 C 
BRANCH  32  33
ATOM     33  CG  LEU A   1       3.548  10.042  29.933  0.00  0.00    +0.002 C 
ATOM     34  CD2 LEU A   1       2.231   9.508  30.509  0.00  0.00    +0.000 C 
ATOM     35  CD1 LEU A   1       3.514  11.532  29.794  0.00  0.00    +0.000 C 
ENDBRANCH  32  33
ENDBRANCH  29  32
ENDBRANCH  25  29
ENDBRANCH  24  27
BRANCH  24  36
ATOM     36  CB  SER A   2       6.792   7.508  24.441  0.00  0.00    +0.166 C 
BRANCH  36  37
ATOM     37  OG  SER A   2       8.061   7.294  25.037  0.00  0.00    -0.380 OA
ATOM     38  H   SER A   2       8.066   7.683  25.947  0.00  0.00    +0.211 HD
ENDBRANCH  36  37
ENDBRANCH  24  36
ENDBRANCH   1  24
TORSDOF 19
REMARK  Name = ../refined-set-2016/2xpk/2xpk_pocket.pdb
REMARK  226 active torsions:
REMARK  status: ('A' for Active; 'I' for Inactive)
REMARK    1  A    between atoms: _1  and  _3
REMARK    2  A    between atoms: _3  and  _4
REMARK    3  A    between atoms: _3  and  _6
REMARK    4  A    between atoms: _9  and  _11
REMARK    5  A    between atoms: _11  and  _12
REMARK    6  A    between atoms: _11  and  _14
REMARK    7  A    between atoms: _14  and  _15
REMARK    8  A    between atoms: _15  and  _16
REMARK    9  A    between atoms: _19  and  _21
REMARK   10  A    between atoms: _21  and  _22
REMARK   11  A    between atoms: _24  and  _26
REMARK   12  A    between atoms: _26  and  _27
REMARK   13  A    between atoms: _26  and  _29
REMARK   14  A    between atoms: _29  and  _30
REMARK   15  A    between atoms: _36  and  _38
REMARK   16  A    between atoms: _38  and  _39
REMARK   17  A    between atoms: _38  and  _41
REMARK   18  A    between atoms: _41  and  _42
REMARK   19  A    between atoms: _47  and  _48
REMARK   20  A    between atoms: _50  and  _52
REMARK   21  A    between atoms: _52  and  _53
REMARK   22  A    between atoms: _55  and  _57
REMARK   23  A    between atoms: _57  and  _58
REMARK   24  A    between atoms: _62  and  _63
REMARK   25  A    between atoms: _68  and  _70
REMARK   26  A    between atoms: _70  and  _71
REMARK   27  A    between atoms: _70  and  _73
REMARK   28  A    between atoms: _73  and  _74
REMARK   29  A    between atoms: _74  and  _75
REMARK   30  A    between atoms: _75  and  _76
REMARK   31  A    between atoms: _76  and  _77
REMARK   32  A    between atoms: _81  and  _83
REMARK   33  A    between atoms: _83  and  _84
REMARK   34  A    between atoms: _83  and  _86
REMARK   35  A    between atoms: _86  and  _87
REMARK   36  A    between atoms: _90  and  _92
REMARK   37  A    between atoms: _92  and  _93
REMARK   38  A    between atoms: _92  and  _95
REMARK   39  A    between atoms: _95  and  _96
REMARK   40  A    between atoms: _101  and  _103
REMARK   41  A    between atoms: _103  and  _104
REMARK   42  A    between atoms: _103  and  _106
REMARK   43  A    between atoms: _106  and  _107
REMARK   44  A    between atoms: _107  and  _108
REMARK   45  A    between atoms: _108  and  _109
REMARK   46  A    between atoms: _118  and  _120
REMARK   47  A    between atoms: _120  and  _121
REMARK   48  A    between atoms: _120  and  _123
REMARK   49  A    between atoms: _123  and  _124
REMARK   50  A    between atoms: _126  and  _128
REMARK   51  A    between atoms: _128  and  _129
REMARK   52  A    between atoms: _128  and  _131
REMARK   53  A    between atoms: _131  and  _132
REMARK   54  A    between atoms: _137  and  _138
REMARK   55  A    between atoms: _140  and  _142
REMARK   56  A    between atoms: _142  and  _143
REMARK   57  A    between atoms: _142  and  _145
REMARK   58  A    between atoms: _145  and  _146
REMARK   59  A    between atoms: _156  and  _158
REMARK   60  A    between atoms: _158  and  _159
REMARK   61  A    between atoms: _158  and  _161
REMARK   62  A    between atoms: _161  and  _162
REMARK   63  A    between atoms: _165  and  _167
REMARK   64  A    between atoms: _167  and  _168
REMARK   65  A    between atoms: _167  and  _170
REMARK   66  A    between atoms: _170  and  _171
REMARK   67  A    between atoms: _174  and  _176
REMARK   68  A    between atoms: _176  and  _177
REMARK   69  A    between atoms: _176  and  _179
REMARK   70  A    between atoms: _179  and  _180
REMARK   71  A    between atoms: _183  and  _185
REMARK   72  A    between atoms: _185  and  _186
REMARK   73  A    between atoms: _185  and  _188
REMARK   74  A    between atoms: _188  and  _189
REMARK   75  A    between atoms: _192  and  _194
REMARK   76  A    between atoms: _194  and  _195
REMARK   77  A    between atoms: _194  and  _197
REMARK   78  A    between atoms: _200  and  _201
REMARK   79  A    between atoms: _206  and  _208
REMARK   80  A    between atoms: _208  and  _209
REMARK   81  A    between atoms: _208  and  _211
REMARK   82  A    between atoms: _211  and  _212
REMARK   83  A    between atoms: _215  and  _217
REMARK   84  A    between atoms: _217  and  _218
REMARK   85  A    between atoms: _217  and  _220
REMARK   86  A    between atoms: _220  and  _221
REMARK   87  A    between atoms: _221  and  _222
REMARK   88  A    between atoms: _225  and  _227
REMARK   89  A    between atoms: _227  and  _228
REMARK   90  A    between atoms: _227  and  _230
REMARK   91  A    between atoms: _230  and  _231
REMARK   92  A    between atoms: _236  and  _237
REMARK   93  A    between atoms: _239  and  _241
REMARK   94  A    between atoms: _241  and  _242
REMARK   95  A    between atoms: _241  and  _244
REMARK   96  A    between atoms: _244  and  _245
REMARK   97  A    between atoms: _248  and  _250
REMARK   98  A    between atoms: _250  and  _251
REMARK   99  A    between atoms: _250  and  _253
REMARK  100  A    between atoms: _256  and  _258
REMARK  101  A    between atoms: _258  and  _259
REMARK  102  A    between atoms: _258  and  _261
REMARK  103  A    between atoms: _261  and  _262
REMARK  104  A    between atoms: _262  and  _263
REMARK  105  A    between atoms: _265  and  _267
REMARK  106  A    between atoms: _267  and  _268
REMARK  107  A    between atoms: _267  and  _270
REMARK  108  A    between atoms: _270  and  _271
REMARK  109  A    between atoms: _281  and  _283
REMARK  110  A    between atoms: _283  and  _284
REMARK  111  A    between atoms: _283  and  _286
REMARK  112  A    between atoms: _286  and  _287
REMARK  113  A    between atoms: _290  and  _292
REMARK  114  A    between atoms: _292  and  _293
REMARK  115  A    between atoms: _295  and  _297
REMARK  116  A    between atoms: _297  and  _298
REMARK  117  A    between atoms: _300  and  _302
REMARK  118  A    between atoms: _302  and  _303
REMARK  119  A    between atoms: _302  and  _305
REMARK  120  A    between atoms: _308  and  _310
REMARK  121  A    between atoms: _310  and  _311
REMARK  122  A    between atoms: _310  and  _313
REMARK  123  A    between atoms: _316  and  _318
REMARK  124  A    between atoms: _318  and  _319
REMARK  125  A    between atoms: _322  and  _324
REMARK  126  A    between atoms: _324  and  _325
REMARK  127  A    between atoms: _324  and  _327
REMARK  128  A    between atoms: _330  and  _332
REMARK  129  A    between atoms: _332  and  _333
REMARK  130  A    between atoms: _332  and  _335
REMARK  131  A    between atoms: _335  and  _336
REMARK  132  A    between atoms: _346  and  _348
REMARK  133  A    between atoms: _348  and  _349
REMARK  134  A    between atoms: _348  and  _351
REMARK  135  A    between atoms: _351  and  _352
REMARK  136  A    between atoms: _362  and  _364
REMARK  137  A    between atoms: _364  and  _365
REMARK  138  A    between atoms: _364  and  _367
REMARK  139  A    between atoms: _367  and  _368
REMARK  140  A    between atoms: _373  and  _375
REMARK  141  A    between atoms: _375  and  _376
REMARK  142  A    between atoms: _375  and  _378
REMARK  143  A    between atoms: _378  and  _379
REMARK  144  A    between atoms: _384  and  _385
REMARK  145  A    between atoms: _387  and  _389
REMARK  146  A    between atoms: _389  and  _390
REMARK  147  A    between atoms: _389  and  _392
REMARK  148  A    between atoms: _395  and  _397
REMARK  149  A    between atoms: _397  and  _398
REMARK  150  A    between atoms: _397  and  _400
REMARK  151  A    between atoms: _400  and  _401
REMARK  152  A    between atoms: _404  and  _406
REMARK  153  A    between atoms: _406  and  _407
REMARK  154  A    between atoms: _406  and  _409
REMARK  155  A    between atoms: _409  and  _410
REMARK  156  A    between atoms: _413  and  _415
REMARK  157  A    between atoms: _415  and  _416
REMARK  158  A    between atoms: _415  and  _418
REMARK  159  A    between atoms: _418  and  _419
REMARK  160  A    between atoms: _424  and  _425
REMARK  161  A    between atoms: _427  and  _429
REMARK  162  A    between atoms: _429  and  _430
REMARK  163  A    between atoms: _429  and  _432
REMARK  164  A    between atoms: _432  and  _433
REMARK  165  A    between atoms: _439  and  _441
REMARK  166  A    between atoms: _441  and  _442
REMARK  167  A    between atoms: _441  and  _444
REMARK  168  A    between atoms: _444  and  _445
REMARK  169  A    between atoms: _448  and  _450
REMARK  170  A    between atoms: _450  and  _451
REMARK  171  A    between atoms: _450  and  _453
REMARK  172  A    between atoms: _453  and  _454
REMARK  173  A    between atoms: _460  and  _461
REMARK  174  A    between atoms: _466  and  _468
REMARK  175  A    between atoms: _468  and  _469
REMARK  176  A    between atoms: _468  and  _471
REMARK  177  A    between atoms: _471  and  _472
REMARK  178  A    between atoms: _477  and  _479
REMARK  179  A    between atoms: _479  and  _480
REMARK  180  A    between atoms: _479  and  _482
REMARK  181  A    between atoms: _482  and  _483
REMARK  182  A    between atoms: _493  and  _495
REMARK  183  A    between atoms: _495  and  _496
REMARK  184  A    between atoms: _499  and  _501
REMARK  185  A    between atoms: _501  and  _502
REMARK  186  A    between atoms: _501  and  _504
REMARK  187  A    between atoms: _504  and  _505
REMARK  188  A    between atoms: _508  and  _510
REMARK  189  A    between atoms: _510  and  _511
REMARK  190  A    between atoms: _510  and  _513
REMARK  191  A    between atoms: _513  and  _514
REMARK  192  A    between atoms: _516  and  _518
REMARK  193  A    between atoms: _518  and  _519
REMARK  194  A    between atoms: _518  and  _521
REMARK  195  A    between atoms: _521  and  _522
REMARK  196  A    between atoms: _524  and  _526
REMARK  197  A    between atoms: _526  and  _527
REMARK  198  A    between atoms: _526  and  _529
REMARK  199  A    between atoms: _529  and  _530
REMARK  200  A    between atoms: _530  and  _531
REMARK  201  A    between atoms: _531  and  _532
REMARK  202  A    between atoms: _532  and  _533
REMARK  203  A    between atoms: _537  and  _539
REMARK  204  A    between atoms: _539  and  _540
REMARK  205  A    between atoms: _539  and  _542
REMARK  206  A    between atoms: _542  and  _543
REMARK  207  A    between atoms: _549  and  _551
REMARK  208  A    between atoms: _551  and  _552
REMARK  209  A    between atoms: _551  and  _554
REMARK  210  A    between atoms: _554  and  _555
REMARK  211  A    between atoms: _558  and  _560
REMARK  212  A    between atoms: _560  and  _561
REMARK  213  A    between atoms: _560  and  _563
REMARK  214  A    between atoms: _563  and  _564
REMARK  215  A    between atoms: _567  and  _569
REMARK  216  A    between atoms: _569  and  _570
REMARK  217  A    between atoms: _569  and  _572
REMARK  218  A    between atoms: _572  and  _573
REMARK  219  A    between atoms: _576  and  _578
REMARK  220  A    between atoms: _578  and  _579
REMARK  221  A    between atoms: _578  and  _581
REMARK  222  A    between atoms: _581  and  _582
REMARK  223  A    between atoms: _585  and  _587
REMARK  224  A    between atoms: _587  and  _588
REMARK  225  A    between atoms: _587  and  _590
REMARK  226  A    between atoms: _590  and  _591
REMARK                            x       y       z     vdW  Elec       q    Type
REMARK                         _______ _______ _______ _____ _____    ______ ____
ROOT
ATOM      1  C   LEU A   3      -3.528  10.627  22.884  0.00  0.00    +0.241 C 
ATOM      2  O   LEU A   3      -4.210   9.998  23.684  0.00  0.00    -0.273 OA
ATOM      3  N   THR A   4      -4.053  11.187  21.799  0.00  0.00    -0.295 N 
ATOM      4  H   THR A   4      -3.460  11.792  21.196  0.00  0.00    +0.150 HD
ENDROOT
BRANCH   3   5
ATOM      5  CA  THR A   4      -5.462  10.963  21.440  0.00  0.00    +0.176 C 
BRANCH   5   6
ATOM      6  C   THR A   4      -5.599   9.758  20.497  0.00  0.00    +0.243 C 
ATOM      7  N   LEU A   5      -4.470   9.155  20.126  0.00  0.00    -0.297 N 
ATOM      8  H   LEU A   5      -3.562   9.539  20.456  0.00  0.00    +0.150 HD
ATOM      9  O   THR A   4      -6.708   9.387  20.123  0.00  0.00    -0.273 OA
BRANCH   7  10
ATOM     10  CA  LEU A   5      -4.469   7.970  19.269  0.00  0.00    +0.149 C 
BRANCH  10  11
ATOM     11  C   LEU A   5      -4.966   6.758  20.053  0.00  0.00    +0.241 C 
ATOM     12  O   LEU A   5      -4.283   6.272  20.964  0.00  0.00    -0.273 OA
ATOM     13  N   ILE A   6      -6.161   6.290  19.699  0.00  0.00    -0.295 N 
ATOM     14  H   ILE A   6      -6.649   6.719  18.887  0.00  0.00    +0.150 HD
BRANCH  13  15
ATOM     15  CA  ILE A   6      -6.810   5.191  20.415  0.00  0.00    +0.176 C 
BRANCH  15  16
ATOM     16  C   ILE A   6      -7.388   4.167  19.421  0.00  0.00    +0.382 C 
ATOM     17  OXT ILE A   6      -7.355   2.955  19.650  0.00  0.00    -0.244 OA
ATOM     18  O   ILE A   6      -7.860   4.513  18.335  0.00  0.00    -0.244 OA
ENDBRANCH  15  16
BRANCH  15  19
ATOM     19  CB  ILE A   6      -7.859   5.728  21.496  0.00  0.00    +0.029 C 
ATOM     20  CG2 ILE A   6      -9.141   6.365  20.853  0.00  0.00    +0.002 C 
BRANCH  19  21
ATOM     21  CG1 ILE A   6      -8.116   4.704  22.629  0.00  0.00    +0.002 C 
ATOM     22  CD1 ILE A   6      -9.039   3.494  22.298  0.00  0.00    +0.000 C 
ENDBRANCH  19  21
ENDBRANCH  15  19
ENDBRANCH  13  15
ENDBRANCH  10  11
BRANCH  10  23
ATOM     23  CB  LEU A   5      -3.076   7.694  18.685  0.00  0.00    +0.029 C 
BRANCH  23  24
ATOM     24  CG  LEU A   5      -2.369   8.796  17.887  0.00  0.00    +0.002 C 
ATOM     25  CD2 LEU A   5      -1.122   8.237  17.238  0.00  0.00    +0.000 C 
ATOM     26  CD1 LEU A   5      -3.296   9.463  16.847  0.00  0.00    +0.000 C 
ENDBRANCH  23  24
ENDBRANCH  10  23
ENDBRANCH   7  10
ENDBRANCH   5   6
BRANCH   5  27
ATOM     27  CB  THR A   4      -6.169  12.229  20.824  0.00  0.00    +0.137 C 
ATOM     28  CG2 THR A   4      -6.242  13.409  21.828  0.00  0.00    +0.034 C 
BRANCH  27  29
ATOM     29  OG1 THR A   4      -5.490  12.642  19.628  0.00  0.00    -0.382 OA
ATOM     30  HG1 THR A   4      -4.551  12.867  19.844  0.00  0.00    +0.210 HD
ENDBRANCH  27  29
ENDBRANCH   5  27
ENDBRANCH   3   5
BRANCH   1  31
ATOM     31  CA  LEU A   3      -2.022  10.816  23.121  0.00  0.00    +0.149 C 
BRANCH  31  33
ATOM     32  C   ASP A   2      -0.648  11.617  21.225  0.00  0.00    +0.241 C 
ATOM     33  N   LEU A   3      -1.432  11.859  22.274  0.00  0.00    -0.297 N 
ATOM     34  H   LEU A   3      -1.639  12.851  22.508  0.00  0.00    +0.150 HD
ATOM     35  O   ASP A   2      -0.296  10.484  20.872  0.00  0.00    -0.273 OA
BRANCH  32  36
ATOM     36  CA  ASP A   2      -0.211  12.883  20.471  0.00  0.00    +0.160 C 
BRANCH  36  39
ATOM     37  C   PHE A   1       1.366  14.062  21.893  0.00  0.00    +0.239 C 
ATOM     38  O   PHE A   1       0.496  14.352  22.702  0.00  0.00    -0.274 OA
ATOM     39  N   ASP A   2       1.132  13.327  20.814  0.00  0.00    -0.297 N 
ATOM     40  H   ASP A   2       1.927  13.062  20.198  0.00  0.00    +0.150 HD
BRANCH  37  41
ATOM     41  CA  PHE A   1       2.797  14.540  22.071  0.00  0.00    +0.149 C 
BRANCH  41  42
ATOM     42  N   PHE A   1       2.897  15.913  21.587  0.00  0.00    -0.238 NA
ATOM     43  H   PHE A   1       2.779  16.697  22.260  0.00  0.00    +0.142 HD
ENDBRANCH  41  42
BRANCH  41  44
ATOM     44  CB  PHE A   1       3.220  14.473  23.540  0.00  0.00    +0.053 C 
BRANCH  44  45
ATOM     45  CG  PHE A   1       3.695  13.114  23.990  0.00  0.00    -0.020 A 
ATOM     46  CD2 PHE A   1       4.981  12.942  24.476  0.00  0.00    -0.004 A 
ATOM     47  CE2 PHE A   1       5.432  11.683  24.914  0.00  0.00    -0.000 A 
ATOM     48  CZ  PHE A   1       4.584  10.598  24.861  0.00  0.00    -0.000 A 
ATOM     49  CE1 PHE A   1       3.307  10.750  24.374  0.00  0.00    -0.000 A 
ATOM     50  CD1 PHE A   1       2.861  12.009  23.951  0.00  0.00    -0.004 A 
ENDBRANCH  44  45
ENDBRANCH  41  44
ENDBRANCH  37  41
ENDBRANCH  36  39
BRANCH  36  51
ATOM     51  CB  ASP A   2      -0.380  12.747  18.946  0.00  0.00    +0.143 C 
BRANCH  51  52
ATOM     52  CG  ASP A   2      -1.876  12.724  18.493  0.00  0.00    +0.367 C 
ATOM     53  OD2 ASP A   2      -2.794  12.568  19.348  0.00  0.00    -0.246 OA
ATOM     54  OD1 ASP A   2      -2.110  12.863  17.263  0.00  0.00    -0.246 OA
ENDBRANCH  51  52
ENDBRANCH  36  51
ENDBRANCH  32  36
ENDBRANCH  31  33
BRANCH  31  55
ATOM     55  CB  LEU A   3      -1.772  11.142  24.603  0.00  0.00    +0.029 C 
BRANCH  55  56
ATOM     56  CG  LEU A   3      -0.354  10.940  25.149  0.00  0.00    +0.002 C 
ATOM     57  CD2 LEU A   3      -0.198  11.638  26.492  0.00  0.00    +0.000 C 
ATOM     58  CD1 LEU A   3       0.027   9.435  25.245  0.00  0.00    +0.000 C 
ENDBRANCH  55  56
ENDBRANCH  31  55
ENDBRANCH   1  31
TORSDOF 24
REMARK  Name = ../refined-set-2016/2xpk/2xpk_pocket.pdb
REMARK  226 active torsions:
REMARK  status: ('A' for Active; 'I' for Inactive)
REMARK    1  A    between atoms: _1  and  _3
REMARK    2  A    between atoms: _3  and  _4
REMARK    3  A    between atoms: _3  and  _6
REMARK    4  A    between atoms: _9  and  _11
REMARK    5  A    between atoms: _11  and  _12
REMARK    6  A    between atoms: _11  and  _14
REMARK    7  A    between atoms: _14  and  _15
REMARK    8  A    between atoms: _15  and  _16
REMARK    9  A    between atoms: _19  and  _21
REMARK   10  A    between atoms: _21  and  _22
REMARK   11  A    between atoms: _24  and  _26
REMARK   12  A    between atoms: _26  and  _27
REMARK   13  A    between atoms: _26  and  _29
REMARK   14  A    between atoms: _29  and  _30
REMARK   15  A    between atoms: _36  and  _38
REMARK   16  A    between atoms: _38  and  _39
REMARK   17  A    between atoms: _38  and  _41
REMARK   18  A    between atoms: _41  and  _42
REMARK   19  A    between atoms: _47  and  _48
REMARK   20  A    between atoms: _50  and  _52
REMARK   21  A    between atoms: _52  and  _53
REMARK   22  A    between atoms: _55  and  _57
REMARK   23  A    between atoms: _57  and  _58
REMARK   24  A    between atoms: _62  and  _63
REMARK   25  A    between atoms: _68  and  _70
REMARK   26  A    between atoms: _70  and  _71
REMARK   27  A    between atoms: _70  and  _73
REMARK   28  A    between atoms: _73  and  _74
REMARK   29  A    between atoms: _74  and  _75
REMARK   30  A    between atoms: _75  and  _76
REMARK   31  A    between atoms: _76  and  _77
REMARK   32  A    between atoms: _81  and  _83
REMARK   33  A    between atoms: _83  and  _84
REMARK   34  A    between atoms: _83  and  _86
REMARK   35  A    between atoms: _86  and  _87
REMARK   36  A    between atoms: _90  and  _92
REMARK   37  A    between atoms: _92  and  _93
REMARK   38  A    between atoms: _92  and  _95
REMARK   39  A    between atoms: _95  and  _96
REMARK   40  A    between atoms: _101  and  _103
REMARK   41  A    between atoms: _103  and  _104
REMARK   42  A    between atoms: _103  and  _106
REMARK   43  A    between atoms: _106  and  _107
REMARK   44  A    between atoms: _107  and  _108
REMARK   45  A    between atoms: _108  and  _109
REMARK   46  A    between atoms: _118  and  _120
REMARK   47  A    between atoms: _120  and  _121
REMARK   48  A    between atoms: _120  and  _123
REMARK   49  A    between atoms: _123  and  _124
REMARK   50  A    between atoms: _126  and  _128
REMARK   51  A    between atoms: _128  and  _129
REMARK   52  A    between atoms: _128  and  _131
REMARK   53  A    between atoms: _131  and  _132
REMARK   54  A    between atoms: _137  and  _138
REMARK   55  A    between atoms: _140  and  _142
REMARK   56  A    between atoms: _142  and  _143
REMARK   57  A    between atoms: _142  and  _145
REMARK   58  A    between atoms: _145  and  _146
REMARK   59  A    between atoms: _156  and  _158
REMARK   60  A    between atoms: _158  and  _159
REMARK   61  A    between atoms: _158  and  _161
REMARK   62  A    between atoms: _161  and  _162
REMARK   63  A    between atoms: _165  and  _167
REMARK   64  A    between atoms: _167  and  _168
REMARK   65  A    between atoms: _167  and  _170
REMARK   66  A    between atoms: _170  and  _171
REMARK   67  A    between atoms: _174  and  _176
REMARK   68  A    between atoms: _176  and  _177
REMARK   69  A    between atoms: _176  and  _179
REMARK   70  A    between atoms: _179  and  _180
REMARK   71  A    between atoms: _183  and  _185
REMARK   72  A    between atoms: _185  and  _186
REMARK   73  A    between atoms: _185  and  _188
REMARK   74  A    between atoms: _188  and  _189
REMARK   75  A    between atoms: _192  and  _194
REMARK   76  A    between atoms: _194  and  _195
REMARK   77  A    between atoms: _194  and  _197
REMARK   78  A    between atoms: _200  and  _201
REMARK   79  A    between atoms: _206  and  _208
REMARK   80  A    between atoms: _208  and  _209
REMARK   81  A    between atoms: _208  and  _211
REMARK   82  A    between atoms: _211  and  _212
REMARK   83  A    between atoms: _215  and  _217
REMARK   84  A    between atoms: _217  and  _218
REMARK   85  A    between atoms: _217  and  _220
REMARK   86  A    between atoms: _220  and  _221
REMARK   87  A    between atoms: _221  and  _222
REMARK   88  A    between atoms: _225  and  _227
REMARK   89  A    between atoms: _227  and  _228
REMARK   90  A    between atoms: _227  and  _230
REMARK   91  A    between atoms: _230  and  _231
REMARK   92  A    between atoms: _236  and  _237
REMARK   93  A    between atoms: _239  and  _241
REMARK   94  A    between atoms: _241  and  _242
REMARK   95  A    between atoms: _241  and  _244
REMARK   96  A    between atoms: _244  and  _245
REMARK   97  A    between atoms: _248  and  _250
REMARK   98  A    between atoms: _250  and  _251
REMARK   99  A    between atoms: _250  and  _253
REMARK  100  A    between atoms: _256  and  _258
REMARK  101  A    between atoms: _258  and  _259
REMARK  102  A    between atoms: _258  and  _261
REMARK  103  A    between atoms: _261  and  _262
REMARK  104  A    between atoms: _262  and  _263
REMARK  105  A    between atoms: _265  and  _267
REMARK  106  A    between atoms: _267  and  _268
REMARK  107  A    between atoms: _267  and  _270
REMARK  108  A    between atoms: _270  and  _271
REMARK  109  A    between atoms: _281  and  _283
REMARK  110  A    between atoms: _283  and  _284
REMARK  111  A    between atoms: _283  and  _286
REMARK  112  A    between atoms: _286  and  _287
REMARK  113  A    between atoms: _290  and  _292
REMARK  114  A    between atoms: _292  and  _293
REMARK  115  A    between atoms: _295  and  _297
REMARK  116  A    between atoms: _297  and  _298
REMARK  117  A    between atoms: _300  and  _302
REMARK  118  A    between atoms: _302  and  _303
REMARK  119  A    between atoms: _302  and  _305
REMARK  120  A    between atoms: _308  and  _310
REMARK  121  A    between atoms: _310  and  _311
REMARK  122  A    between atoms: _310  and  _313
REMARK  123  A    between atoms: _316  and  _318
REMARK  124  A    between atoms: _318  and  _319
REMARK  125  A    between atoms: _322  and  _324
REMARK  126  A    between atoms: _324  and  _325
REMARK  127  A    between atoms: _324  and  _327
REMARK  128  A    between atoms: _330  and  _332
REMARK  129  A    between atoms: _332  and  _333
REMARK  130  A    between atoms: _332  and  _335
REMARK  131  A    between atoms: _335  and  _336
REMARK  132  A    between atoms: _346  and  _348
REMARK  133  A    between atoms: _348  and  _349
REMARK  134  A    between atoms: _348  and  _351
REMARK  135  A    between atoms: _351  and  _352
REMARK  136  A    between atoms: _362  and  _364
REMARK  137  A    between atoms: _364  and  _365
REMARK  138  A    between atoms: _364  and  _367
REMARK  139  A    between atoms: _367  and  _368
REMARK  140  A    between atoms: _373  and  _375
REMARK  141  A    between atoms: _375  and  _376
REMARK  142  A    between atoms: _375  and  _378
REMARK  143  A    between atoms: _378  and  _379
REMARK  144  A    between atoms: _384  and  _385
REMARK  145  A    between atoms: _387  and  _389
REMARK  146  A    between atoms: _389  and  _390
REMARK  147  A    between atoms: _389  and  _392
REMARK  148  A    between atoms: _395  and  _397
REMARK  149  A    between atoms: _397  and  _398
REMARK  150  A    between atoms: _397  and  _400
REMARK  151  A    between atoms: _400  and  _401
REMARK  152  A    between atoms: _404  and  _406
REMARK  153  A    between atoms: _406  and  _407
REMARK  154  A    between atoms: _406  and  _409
REMARK  155  A    between atoms: _409  and  _410
REMARK  156  A    between atoms: _413  and  _415
REMARK  157  A    between atoms: _415  and  _416
REMARK  158  A    between atoms: _415  and  _418
REMARK  159  A    between atoms: _418  and  _419
REMARK  160  A    between atoms: _424  and  _425
REMARK  161  A    between atoms: _427  and  _429
REMARK  162  A    between atoms: _429  and  _430
REMARK  163  A    between atoms: _429  and  _432
REMARK  164  A    between atoms: _432  and  _433
REMARK  165  A    between atoms: _439  and  _441
REMARK  166  A    between atoms: _441  and  _442
REMARK  167  A    between atoms: _441  and  _444
REMARK  168  A    between atoms: _444  and  _445
REMARK  169  A    between atoms: _448  and  _450
REMARK  170  A    between atoms: _450  and  _451
REMARK  171  A    between atoms: _450  and  _453
REMARK  172  A    between atoms: _453  and  _454
REMARK  173  A    between atoms: _460  and  _461
REMARK  174  A    between atoms: _466  and  _468
REMARK  175  A    between atoms: _468  and  _469
REMARK  176  A    between atoms: _468  and  _471
REMARK  177  A    between atoms: _471  and  _472
REMARK  178  A    between atoms: _477  and  _479
REMARK  179  A    between atoms: _479  and  _480
REMARK  180  A    between atoms: _479  and  _482
REMARK  181  A    between atoms: _482  and  _483
REMARK  182  A    between atoms: _493  and  _495
REMARK  183  A    between atoms: _495  and  _496
REMARK  184  A    between atoms: _499  and  _501
REMARK  185  A    between atoms: _501  and  _502
REMARK  186  A    between atoms: _501  and  _504
REMARK  187  A    between atoms: _504  and  _505
REMARK  188  A    between atoms: _508  and  _510
REMARK  189  A    between atoms: _510  and  _511
REMARK  190  A    between atoms: _510  and  _513
REMARK  191  A    between atoms: _513  and  _514
REMARK  192  A    between atoms: _516  and  _518
REMARK  193  A    between atoms: _518  and  _519
REMARK  194  A    between atoms: _518  and  _521
REMARK  195  A    between atoms: _521  and  _522
REMARK  196  A    between atoms: _524  and  _526
REMARK  197  A    between atoms: _526  and  _527
REMARK  198  A    between atoms: _526  and  _529
REMARK  199  A    between atoms: _529  and  _530
REMARK  200  A    between atoms: _530  and  _531
REMARK  201  A    between atoms: _531  and  _532
REMARK  202  A    between atoms: _532  and  _533
REMARK  203  A    between atoms: _537  and  _539
REMARK  204  A    between atoms: _539  and  _540
REMARK  205  A    between atoms: _539  and  _542
REMARK  206  A    between atoms: _542  and  _543
REMARK  207  A    between atoms: _549  and  _551
REMARK  208  A    between atoms: _551  and  _552
REMARK  209  A    between atoms: _551  and  _554
REMARK  210  A    between atoms: _554  and  _555
REMARK  211  A    between atoms: _558  and  _560
REMARK  212  A    between atoms: _560  and  _561
REMARK  213  A    between atoms: _560  and  _563
REMARK  214  A    between atoms: _563  and  _564
REMARK  215  A    between atoms: _567  and  _569
REMARK  216  A    between atoms: _569  and  _570
REMARK  217  A    between atoms: _569  and  _572
REMARK  218  A    between atoms: _572  and  _573
REMARK  219  A    between atoms: _576  and  _578
REMARK  220  A    between atoms: _578  and  _579
REMARK  221  A    between atoms: _578  and  _581
REMARK  222  A    between atoms: _581  and  _582
REMARK  223  A    between atoms: _585  and  _587
REMARK  224  A    between atoms: _587  and  _588
REMARK  225  A    between atoms: _587  and  _590
REMARK  226  A    between atoms: _590  and  _591
REMARK                            x       y       z     vdW  Elec       q    Type
REMARK                         _______ _______ _______ _____ _____    ______ ____
ROOT
ATOM      1  O   HOH     1      -6.564   3.296  11.110  0.00  0.00    +0.000 OA
ENDROOT
TORSDOF 0
REMARK  Name = ../refined-set-2016/2xpk/2xpk_pocket.pdb
REMARK  226 active torsions:
REMARK  status: ('A' for Active; 'I' for Inactive)
REMARK    1  A    between atoms: _1  and  _3
REMARK    2  A    between atoms: _3  and  _4
REMARK    3  A    between atoms: _3  and  _6
REMARK    4  A    between atoms: _9  and  _11
REMARK    5  A    between atoms: _11  and  _12
REMARK    6  A    between atoms: _11  and  _14
REMARK    7  A    between atoms: _14  and  _15
REMARK    8  A    between atoms: _15  and  _16
REMARK    9  A    between atoms: _19  and  _21
REMARK   10  A    between atoms: _21  and  _22
REMARK   11  A    between atoms: _24  and  _26
REMARK   12  A    between atoms: _26  and  _27
REMARK   13  A    between atoms: _26  and  _29
REMARK   14  A    between atoms: _29  and  _30
REMARK   15  A    between atoms: _36  and  _38
REMARK   16  A    between atoms: _38  and  _39
REMARK   17  A    between atoms: _38  and  _41
REMARK   18  A    between atoms: _41  and  _42
REMARK   19  A    between atoms: _47  and  _48
REMARK   20  A    between atoms: _50  and  _52
REMARK   21  A    between atoms: _52  and  _53
REMARK   22  A    between atoms: _55  and  _57
REMARK   23  A    between atoms: _57  and  _58
REMARK   24  A    between atoms: _62  and  _63
REMARK   25  A    between atoms: _68  and  _70
REMARK   26  A    between atoms: _70  and  _71
REMARK   27  A    between atoms: _70  and  _73
REMARK   28  A    between atoms: _73  and  _74
REMARK   29  A    between atoms: _74  and  _75
REMARK   30  A    between atoms: _75  and  _76
REMARK   31  A    between atoms: _76  and  _77
REMARK   32  A    between atoms: _81  and  _83
REMARK   33  A    between atoms: _83  and  _84
REMARK   34  A    between atoms: _83  and  _86
REMARK   35  A    between atoms: _86  and  _87
REMARK   36  A    between atoms: _90  and  _92
REMARK   37  A    between atoms: _92  and  _93
REMARK   38  A    between atoms: _92  and  _95
REMARK   39  A    between atoms: _95  and  _96
REMARK   40  A    between atoms: _101  and  _103
REMARK   41  A    between atoms: _103  and  _104
REMARK   42  A    between atoms: _103  and  _106
REMARK   43  A    between atoms: _106  and  _107
REMARK   44  A    between atoms: _107  and  _108
REMARK   45  A    between atoms: _108  and  _109
REMARK   46  A    between atoms: _118  and  _120
REMARK   47  A    between atoms: _120  and  _121
REMARK   48  A    between atoms: _120  and  _123
REMARK   49  A    between atoms: _123  and  _124
REMARK   50  A    between atoms: _126  and  _128
REMARK   51  A    between atoms: _128  and  _129
REMARK   52  A    between atoms: _128  and  _131
REMARK   53  A    between atoms: _131  and  _132
REMARK   54  A    between atoms: _137  and  _138
REMARK   55  A    between atoms: _140  and  _142
REMARK   56  A    between atoms: _142  and  _143
REMARK   57  A    between atoms: _142  and  _145
REMARK   58  A    between atoms: _145  and  _146
REMARK   59  A    between atoms: _156  and  _158
REMARK   60  A    between atoms: _158  and  _159
REMARK   61  A    between atoms: _158  and  _161
REMARK   62  A    between atoms: _161  and  _162
REMARK   63  A    between atoms: _165  and  _167
REMARK   64  A    between atoms: _167  and  _168
REMARK   65  A    between atoms: _167  and  _170
REMARK   66  A    between atoms: _170  and  _171
REMARK   67  A    between atoms: _174  and  _176
REMARK   68  A    between atoms: _176  and  _177
REMARK   69  A    between atoms: _176  and  _179
REMARK   70  A    between atoms: _179  and  _180
REMARK   71  A    between atoms: _183  and  _185
REMARK   72  A    between atoms: _185  and  _186
REMARK   73  A    between atoms: _185  and  _188
REMARK   74  A    between atoms: _188  and  _189
REMARK   75  A    between atoms: _192  and  _194
REMARK   76  A    between atoms: _194  and  _195
REMARK   77  A    between atoms: _194  and  _197
REMARK   78  A    between atoms: _200  and  _201
REMARK   79  A    between atoms: _206  and  _208
REMARK   80  A    between atoms: _208  and  _209
REMARK   81  A    between atoms: _208  and  _211
REMARK   82  A    between atoms: _211  and  _212
REMARK   83  A    between atoms: _215  and  _217
REMARK   84  A    between atoms: _217  and  _218
REMARK   85  A    between atoms: _217  and  _220
REMARK   86  A    between atoms: _220  and  _221
REMARK   87  A    between atoms: _221  and  _222
REMARK   88  A    between atoms: _225  and  _227
REMARK   89  A    between atoms: _227  and  _228
REMARK   90  A    between atoms: _227  and  _230
REMARK   91  A    between atoms: _230  and  _231
REMARK   92  A    between atoms: _236  and  _237
REMARK   93  A    between atoms: _239  and  _241
REMARK   94  A    between atoms: _241  and  _242
REMARK   95  A    between atoms: _241  and  _244
REMARK   96  A    between atoms: _244  and  _245
REMARK   97  A    between atoms: _248  and  _250
REMARK   98  A    between atoms: _250  and  _251
REMARK   99  A    between atoms: _250  and  _253
REMARK  100  A    between atoms: _256  and  _258
REMARK  101  A    between atoms: _258  and  _259
REMARK  102  A    between atoms: _258  and  _261
REMARK  103  A    between atoms: _261  and  _262
REMARK  104  A    between atoms: _262  and  _263
REMARK  105  A    between atoms: _265  and  _267
REMARK  106  A    between atoms: _267  and  _268
REMARK  107  A    between atoms: _267  and  _270
REMARK  108  A    between atoms: _270  and  _271
REMARK  109  A    between atoms: _281  and  _283
REMARK  110  A    between atoms: _283  and  _284
REMARK  111  A    between atoms: _283  and  _286
REMARK  112  A    between atoms: _286  and  _287
REMARK  113  A    between atoms: _290  and  _292
REMARK  114  A    between atoms: _292  and  _293
REMARK  115  A    between atoms: _295  and  _297
REMARK  116  A    between atoms: _297  and  _298
REMARK  117  A    between atoms: _300  and  _302
REMARK  118  A    between atoms: _302  and  _303
REMARK  119  A    between atoms: _302  and  _305
REMARK  120  A    between atoms: _308  and  _310
REMARK  121  A    between atoms: _310  and  _311
REMARK  122  A    between atoms: _310  and  _313
REMARK  123  A    between atoms: _316  and  _318
REMARK  124  A    between atoms: _318  and  _319
REMARK  125  A    between atoms: _322  and  _324
REMARK  126  A    between atoms: _324  and  _325
REMARK  127  A    between atoms: _324  and  _327
REMARK  128  A    between atoms: _330  and  _332
REMARK  129  A    between atoms: _332  and  _333
REMARK  130  A    between atoms: _332  and  _335
REMARK  131  A    between atoms: _335  and  _336
REMARK  132  A    between atoms: _346  and  _348
REMARK  133  A    between atoms: _348  and  _349
REMARK  134  A    between atoms: _348  and  _351
REMARK  135  A    between atoms: _351  and  _352
REMARK  136  A    between atoms: _362  and  _364
REMARK  137  A    between atoms: _364  and  _365
REMARK  138  A    between atoms: _364  and  _367
REMARK  139  A    between atoms: _367  and  _368
REMARK  140  A    between atoms: _373  and  _375
REMARK  141  A    between atoms: _375  and  _376
REMARK  142  A    between atoms: _375  and  _378
REMARK  143  A    between atoms: _378  and  _379
REMARK  144  A    between atoms: _384  and  _385
REMARK  145  A    between atoms: _387  and  _389
REMARK  146  A    between atoms: _389  and  _390
REMARK  147  A    between atoms: _389  and  _392
REMARK  148  A    between atoms: _395  and  _397
REMARK  149  A    between atoms: _397  and  _398
REMARK  150  A    between atoms: _397  and  _400
REMARK  151  A    between atoms: _400  and  _401
REMARK  152  A    between atoms: _404  and  _406
REMARK  153  A    between atoms: _406  and  _407
REMARK  154  A    between atoms: _406  and  _409
REMARK  155  A    between atoms: _409  and  _410
REMARK  156  A    between atoms: _413  and  _415
REMARK  157  A    between atoms: _415  and  _416
REMARK  158  A    between atoms: _415  and  _418
REMARK  159  A    between atoms: _418  and  _419
REMARK  160  A    between atoms: _424  and  _425
REMARK  161  A    between atoms: _427  and  _429
REMARK  162  A    between atoms: _429  and  _430
REMARK  163  A    between atoms: _429  and  _432
REMARK  164  A    between atoms: _432  and  _433
REMARK  165  A    between atoms: _439  and  _441
REMARK  166  A    between atoms: _441  and  _442
REMARK  167  A    between atoms: _441  and  _444
REMARK  168  A    between atoms: _444  and  _445
REMARK  169  A    between atoms: _448  and  _450
REMARK  170  A    between atoms: _450  and  _451
REMARK  171  A    between atoms: _450  and  _453
REMARK  172  A    between atoms: _453  and  _454
REMARK  173  A    between atoms: _460  and  _461
REMARK  174  A    between atoms: _466  and  _468
REMARK  175  A    between atoms: _468  and  _469
REMARK  176  A    between atoms: _468  and  _471
REMARK  177  A    between atoms: _471  and  _472
REMARK  178  A    between atoms: _477  and  _479
REMARK  179  A    between atoms: _479  and  _480
REMARK  180  A    between atoms: _479  and  _482
REMARK  181  A    between atoms: _482  and  _483
REMARK  182  A    between atoms: _493  and  _495
REMARK  183  A    between atoms: _495  and  _496
REMARK  184  A    between atoms: _499  and  _501
REMARK  185  A    between atoms: _501  and  _502
REMARK  186  A    between atoms: _501  and  _504
REMARK  187  A    between atoms: _504  and  _505
REMARK  188  A    between atoms: _508  and  _510
REMARK  189  A    between atoms: _510  and  _511
REMARK  190  A    between atoms: _510  and  _513
REMARK  191  A    between atoms: _513  and  _514
REMARK  192  A    between atoms: _516  and  _518
REMARK  193  A    between atoms: _518  and  _519
REMARK  194  A    between atoms: _518  and  _521
REMARK  195  A    between atoms: _521  and  _522
REMARK  196  A    between atoms: _524  and  _526
REMARK  197  A    between atoms: _526  and  _527
REMARK  198  A    between atoms: _526  and  _529
REMARK  199  A    between atoms: _529  and  _530
REMARK  200  A    between atoms: _530  and  _531
REMARK  201  A    between atoms: _531  and  _532
REMARK  202  A    between atoms: _532  and  _533
REMARK  203  A    between atoms: _537  and  _539
REMARK  204  A    between atoms: _539  and  _540
REMARK  205  A    between atoms: _539  and  _542
REMARK  206  A    between atoms: _542  and  _543
REMARK  207  A    between atoms: _549  and  _551
REMARK  208  A    between atoms: _551  and  _552
REMARK  209  A    between atoms: _551  and  _554
REMARK  210  A    between atoms: _554  and  _555
REMARK  211  A    between atoms: _558  and  _560
REMARK  212  A    between atoms: _560  and  _561
REMARK  213  A    between atoms: _560  and  _563
REMARK  214  A    between atoms: _563  and  _564
REMARK  215  A    between atoms: _567  and  _569
REMARK  216  A    between atoms: _569  and  _570
REMARK  217  A    between atoms: _569  and  _572
REMARK  218  A    between atoms: _572  and  _573
REMARK  219  A    between atoms: _576  and  _578
REMARK  220  A    between atoms: _578  and  _579
REMARK  221  A    between atoms: _578  and  _581
REMARK  222  A    between atoms: _581  and  _582
REMARK  223  A    between atoms: _585  and  _587
REMARK  224  A    between atoms: _587  and  _588
REMARK  225  A    between atoms: _587  and  _590
REMARK  226  A    between atoms: _590  and  _591
REMARK                            x       y       z     vdW  Elec       q    Type
REMARK                         _______ _______ _______ _____ _____    ______ ____
ROOT
ATOM      1  O   HOH     1      -3.156  -2.233  13.934  0.00  0.00    +0.000 OA
ENDROOT
TORSDOF 0
REMARK  Name = ../refined-set-2016/2xpk/2xpk_pocket.pdb
REMARK  226 active torsions:
REMARK  status: ('A' for Active; 'I' for Inactive)
REMARK    1  A    between atoms: _1  and  _3
REMARK    2  A    between atoms: _3  and  _4
REMARK    3  A    between atoms: _3  and  _6
REMARK    4  A    between atoms: _9  and  _11
REMARK    5  A    between atoms: _11  and  _12
REMARK    6  A    between atoms: _11  and  _14
REMARK    7  A    between atoms: _14  and  _15
REMARK    8  A    between atoms: _15  and  _16
REMARK    9  A    between atoms: _19  and  _21
REMARK   10  A    between atoms: _21  and  _22
REMARK   11  A    between atoms: _24  and  _26
REMARK   12  A    between atoms: _26  and  _27
REMARK   13  A    between atoms: _26  and  _29
REMARK   14  A    between atoms: _29  and  _30
REMARK   15  A    between atoms: _36  and  _38
REMARK   16  A    between atoms: _38  and  _39
REMARK   17  A    between atoms: _38  and  _41
REMARK   18  A    between atoms: _41  and  _42
REMARK   19  A    between atoms: _47  and  _48
REMARK   20  A    between atoms: _50  and  _52
REMARK   21  A    between atoms: _52  and  _53
REMARK   22  A    between atoms: _55  and  _57
REMARK   23  A    between atoms: _57  and  _58
REMARK   24  A    between atoms: _62  and  _63
REMARK   25  A    between atoms: _68  and  _70
REMARK   26  A    between atoms: _70  and  _71
REMARK   27  A    between atoms: _70  and  _73
REMARK   28  A    between atoms: _73  and  _74
REMARK   29  A    between atoms: _74  and  _75
REMARK   30  A    between atoms: _75  and  _76
REMARK   31  A    between atoms: _76  and  _77
REMARK   32  A    between atoms: _81  and  _83
REMARK   33  A    between atoms: _83  and  _84
REMARK   34  A    between atoms: _83  and  _86
REMARK   35  A    between atoms: _86  and  _87
REMARK   36  A    between atoms: _90  and  _92
REMARK   37  A    between atoms: _92  and  _93
REMARK   38  A    between atoms: _92  and  _95
REMARK   39  A    between atoms: _95  and  _96
REMARK   40  A    between atoms: _101  and  _103
REMARK   41  A    between atoms: _103  and  _104
REMARK   42  A    between atoms: _103  and  _106
REMARK   43  A    between atoms: _106  and  _107
REMARK   44  A    between atoms: _107  and  _108
REMARK   45  A    between atoms: _108  and  _109
REMARK   46  A    between atoms: _118  and  _120
REMARK   47  A    between atoms: _120  and  _121
REMARK   48  A    between atoms: _120  and  _123
REMARK   49  A    between atoms: _123  and  _124
REMARK   50  A    between atoms: _126  and  _128
REMARK   51  A    between atoms: _128  and  _129
REMARK   52  A    between atoms: _128  and  _131
REMARK   53  A    between atoms: _131  and  _132
REMARK   54  A    between atoms: _137  and  _138
REMARK   55  A    between atoms: _140  and  _142
REMARK   56  A    between atoms: _142  and  _143
REMARK   57  A    between atoms: _142  and  _145
REMARK   58  A    between atoms: _145  and  _146
REMARK   59  A    between atoms: _156  and  _158
REMARK   60  A    between atoms: _158  and  _159
REMARK   61  A    between atoms: _158  and  _161
REMARK   62  A    between atoms: _161  and  _162
REMARK   63  A    between atoms: _165  and  _167
REMARK   64  A    between atoms: _167  and  _168
REMARK   65  A    between atoms: _167  and  _170
REMARK   66  A    between atoms: _170  and  _171
REMARK   67  A    between atoms: _174  and  _176
REMARK   68  A    between atoms: _176  and  _177
REMARK   69  A    between atoms: _176  and  _179
REMARK   70  A    between atoms: _179  and  _180
REMARK   71  A    between atoms: _183  and  _185
REMARK   72  A    between atoms: _185  and  _186
REMARK   73  A    between atoms: _185  and  _188
REMARK   74  A    between atoms: _188  and  _189
REMARK   75  A    between atoms: _192  and  _194
REMARK   76  A    between atoms: _194  and  _195
REMARK   77  A    between atoms: _194  and  _197
REMARK   78  A    between atoms: _200  and  _201
REMARK   79  A    between atoms: _206  and  _208
REMARK   80  A    between atoms: _208  and  _209
REMARK   81  A    between atoms: _208  and  _211
REMARK   82  A    between atoms: _211  and  _212
REMARK   83  A    between atoms: _215  and  _217
REMARK   84  A    between atoms: _217  and  _218
REMARK   85  A    between atoms: _217  and  _220
REMARK   86  A    between atoms: _220  and  _221
REMARK   87  A    between atoms: _221  and  _222
REMARK   88  A    between atoms: _225  and  _227
REMARK   89  A    between atoms: _227  and  _228
REMARK   90  A    between atoms: _227  and  _230
REMARK   91  A    between atoms: _230  and  _231
REMARK   92  A    between atoms: _236  and  _237
REMARK   93  A    between atoms: _239  and  _241
REMARK   94  A    between atoms: _241  and  _242
REMARK   95  A    between atoms: _241  and  _244
REMARK   96  A    between atoms: _244  and  _245
REMARK   97  A    between atoms: _248  and  _250
REMARK   98  A    between atoms: _250  and  _251
REMARK   99  A    between atoms: _250  and  _253
REMARK  100  A    between atoms: _256  and  _258
REMARK  101  A    between atoms: _258  and  _259
REMARK  102  A    between atoms: _258  and  _261
REMARK  103  A    between atoms: _261  and  _262
REMARK  104  A    between atoms: _262  and  _263
REMARK  105  A    between atoms: _265  and  _267
REMARK  106  A    between atoms: _267  and  _268
REMARK  107  A    between atoms: _267  and  _270
REMARK  108  A    between atoms: _270  and  _271
REMARK  109  A    between atoms: _281  and  _283
REMARK  110  A    between atoms: _283  and  _284
REMARK  111  A    between atoms: _283  and  _286
REMARK  112  A    between atoms: _286  and  _287
REMARK  113  A    between atoms: _290  and  _292
REMARK  114  A    between atoms: _292  and  _293
REMARK  115  A    between atoms: _295  and  _297
REMARK  116  A    between atoms: _297  and  _298
REMARK  117  A    between atoms: _300  and  _302
REMARK  118  A    between atoms: _302  and  _303
REMARK  119  A    between atoms: _302  and  _305
REMARK  120  A    between atoms: _308  and  _310
REMARK  121  A    between atoms: _310  and  _311
REMARK  122  A    between atoms: _310  and  _313
REMARK  123  A    between atoms: _316  and  _318
REMARK  124  A    between atoms: _318  and  _319
REMARK  125  A    between atoms: _322  and  _324
REMARK  126  A    between atoms: _324  and  _325
REMARK  127  A    between atoms: _324  and  _327
REMARK  128  A    between atoms: _330  and  _332
REMARK  129  A    between atoms: _332  and  _333
REMARK  130  A    between atoms: _332  and  _335
REMARK  131  A    between atoms: _335  and  _336
REMARK  132  A    between atoms: _346  and  _348
REMARK  133  A    between atoms: _348  and  _349
REMARK  134  A    between atoms: _348  and  _351
REMARK  135  A    between atoms: _351  and  _352
REMARK  136  A    between atoms: _362  and  _364
REMARK  137  A    between atoms: _364  and  _365
REMARK  138  A    between atoms: _364  and  _367
REMARK  139  A    between atoms: _367  and  _368
REMARK  140  A    between atoms: _373  and  _375
REMARK  141  A    between atoms: _375  and  _376
REMARK  142  A    between atoms: _375  and  _378
REMARK  143  A    between atoms: _378  and  _379
REMARK  144  A    between atoms: _384  and  _385
REMARK  145  A    between atoms: _387  and  _389
REMARK  146  A    between atoms: _389  and  _390
REMARK  147  A    between atoms: _389  and  _392
REMARK  148  A    between atoms: _395  and  _397
REMARK  149  A    between atoms: _397  and  _398
REMARK  150  A    between atoms: _397  and  _400
REMARK  151  A    between atoms: _400  and  _401
REMARK  152  A    between atoms: _404  and  _406
REMARK  153  A    between atoms: _406  and  _407
REMARK  154  A    between atoms: _406  and  _409
REMARK  155  A    between atoms: _409  and  _410
REMARK  156  A    between atoms: _413  and  _415
REMARK  157  A    between atoms: _415  and  _416
REMARK  158  A    between atoms: _415  and  _418
REMARK  159  A    between atoms: _418  and  _419
REMARK  160  A    between atoms: _424  and  _425
REMARK  161  A    between atoms: _427  and  _429
REMARK  162  A    between atoms: _429  and  _430
REMARK  163  A    between atoms: _429  and  _432
REMARK  164  A    between atoms: _432  and  _433
REMARK  165  A    between atoms: _439  and  _441
REMARK  166  A    between atoms: _441  and  _442
REMARK  167  A    between atoms: _441  and  _444
REMARK  168  A    between atoms: _444  and  _445
REMARK  169  A    between atoms: _448  and  _450
REMARK  170  A    between atoms: _450  and  _451
REMARK  171  A    between atoms: _450  and  _453
REMARK  172  A    between atoms: _453  and  _454
REMARK  173  A    between atoms: _460  and  _461
REMARK  174  A    between atoms: _466  and  _468
REMARK  175  A    between atoms: _468  and  _469
REMARK  176  A    between atoms: _468  and  _471
REMARK  177  A    between atoms: _471  and  _472
REMARK  178  A    between atoms: _477  and  _479
REMARK  179  A    between atoms: _479  and  _480
REMARK  180  A    between atoms: _479  and  _482
REMARK  181  A    between atoms: _482  and  _483
REMARK  182  A    between atoms: _493  and  _495
REMARK  183  A    between atoms: _495  and  _496
REMARK  184  A    between atoms: _499  and  _501
REMARK  185  A    between atoms: _501  and  _502
REMARK  186  A    between atoms: _501  and  _504
REMARK  187  A    between atoms: _504  and  _505
REMARK  188  A    between atoms: _508  and  _510
REMARK  189  A    between atoms: _510  and  _511
REMARK  190  A    between atoms: _510  and  _513
REMARK  191  A    between atoms: _513  and  _514
REMARK  192  A    between atoms: _516  and  _518
REMARK  193  A    between atoms: _518  and  _519
REMARK  194  A    between atoms: _518  and  _521
REMARK  195  A    between atoms: _521  and  _522
REMARK  196  A    between atoms: _524  and  _526
REMARK  197  A    between atoms: _526  and  _527
REMARK  198  A    between atoms: _526  and  _529
REMARK  199  A    between atoms: _529  and  _530
REMARK  200  A    between atoms: _530  and  _531
REMARK  201  A    between atoms: _531  and  _532
REMARK  202  A    between atoms: _532  and  _533
REMARK  203  A    between atoms: _537  and  _539
REMARK  204  A    between atoms: _539  and  _540
REMARK  205  A    between atoms: _539  and  _542
REMARK  206  A    between atoms: _542  and  _543
REMARK  207  A    between atoms: _549  and  _551
REMARK  208  A    between atoms: _551  and  _552
REMARK  209  A    between atoms: _551  and  _554
REMARK  210  A    between atoms: _554  and  _555
REMARK  211  A    between atoms: _558  and  _560
REMARK  212  A    between atoms: _560  and  _561
REMARK  213  A    between atoms: _560  and  _563
REMARK  214  A    between atoms: _563  and  _564
REMARK  215  A    between atoms: _567  and  _569
REMARK  216  A    between atoms: _569  and  _570
REMARK  217  A    between atoms: _569  and  _572
REMARK  218  A    between atoms: _572  and  _573
REMARK  219  A    between atoms: _576  and  _578
REMARK  220  A    between atoms: _578  and  _579
REMARK  221  A    between atoms: _578  and  _581
REMARK  222  A    between atoms: _581  and  _582
REMARK  223  A    between atoms: _585  and  _587
REMARK  224  A    between atoms: _587  and  _588
REMARK  225  A    between atoms: _587  and  _590
REMARK  226  A    between atoms: _590  and  _591
REMARK                            x       y       z     vdW  Elec       q    Type
REMARK                         _______ _______ _______ _____ _____    ______ ____
ROOT
ATOM      1  O   HOH     1      -2.497  -3.636  16.724  0.00  0.00    +0.000 OA
ENDROOT
TORSDOF 0
REMARK  Name = ../refined-set-2016/2xpk/2xpk_pocket.pdb
REMARK  226 active torsions:
REMARK  status: ('A' for Active; 'I' for Inactive)
REMARK    1  A    between atoms: _1  and  _3
REMARK    2  A    between atoms: _3  and  _4
REMARK    3  A    between atoms: _3  and  _6
REMARK    4  A    between atoms: _9  and  _11
REMARK    5  A    between atoms: _11  and  _12
REMARK    6  A    between atoms: _11  and  _14
REMARK    7  A    between atoms: _14  and  _15
REMARK    8  A    between atoms: _15  and  _16
REMARK    9  A    between atoms: _19  and  _21
REMARK   10  A    between atoms: _21  and  _22
REMARK   11  A    between atoms: _24  and  _26
REMARK   12  A    between atoms: _26  and  _27
REMARK   13  A    between atoms: _26  and  _29
REMARK   14  A    between atoms: _29  and  _30
REMARK   15  A    between atoms: _36  and  _38
REMARK   16  A    between atoms: _38  and  _39
REMARK   17  A    between atoms: _38  and  _41
REMARK   18  A    between atoms: _41  and  _42
REMARK   19  A    between atoms: _47  and  _48
REMARK   20  A    between atoms: _50  and  _52
REMARK   21  A    between atoms: _52  and  _53
REMARK   22  A    between atoms: _55  and  _57
REMARK   23  A    between atoms: _57  and  _58
REMARK   24  A    between atoms: _62  and  _63
REMARK   25  A    between atoms: _68  and  _70
REMARK   26  A    between atoms: _70  and  _71
REMARK   27  A    between atoms: _70  and  _73
REMARK   28  A    between atoms: _73  and  _74
REMARK   29  A    between atoms: _74  and  _75
REMARK   30  A    between atoms: _75  and  _76
REMARK   31  A    between atoms: _76  and  _77
REMARK   32  A    between atoms: _81  and  _83
REMARK   33  A    between atoms: _83  and  _84
REMARK   34  A    between atoms: _83  and  _86
REMARK   35  A    between atoms: _86  and  _87
REMARK   36  A    between atoms: _90  and  _92
REMARK   37  A    between atoms: _92  and  _93
REMARK   38  A    between atoms: _92  and  _95
REMARK   39  A    between atoms: _95  and  _96
REMARK   40  A    between atoms: _101  and  _103
REMARK   41  A    between atoms: _103  and  _104
REMARK   42  A    between atoms: _103  and  _106
REMARK   43  A    between atoms: _106  and  _107
REMARK   44  A    between atoms: _107  and  _108
REMARK   45  A    between atoms: _108  and  _109
REMARK   46  A    between atoms: _118  and  _120
REMARK   47  A    between atoms: _120  and  _121
REMARK   48  A    between atoms: _120  and  _123
REMARK   49  A    between atoms: _123  and  _124
REMARK   50  A    between atoms: _126  and  _128
REMARK   51  A    between atoms: _128  and  _129
REMARK   52  A    between atoms: _128  and  _131
REMARK   53  A    between atoms: _131  and  _132
REMARK   54  A    between atoms: _137  and  _138
REMARK   55  A    between atoms: _140  and  _142
REMARK   56  A    between atoms: _142  and  _143
REMARK   57  A    between atoms: _142  and  _145
REMARK   58  A    between atoms: _145  and  _146
REMARK   59  A    between atoms: _156  and  _158
REMARK   60  A    between atoms: _158  and  _159
REMARK   61  A    between atoms: _158  and  _161
REMARK   62  A    between atoms: _161  and  _162
REMARK   63  A    between atoms: _165  and  _167
REMARK   64  A    between atoms: _167  and  _168
REMARK   65  A    between atoms: _167  and  _170
REMARK   66  A    between atoms: _170  and  _171
REMARK   67  A    between atoms: _174  and  _176
REMARK   68  A    between atoms: _176  and  _177
REMARK   69  A    between atoms: _176  and  _179
REMARK   70  A    between atoms: _179  and  _180
REMARK   71  A    between atoms: _183  and  _185
REMARK   72  A    between atoms: _185  and  _186
REMARK   73  A    between atoms: _185  and  _188
REMARK   74  A    between atoms: _188  and  _189
REMARK   75  A    between atoms: _192  and  _194
REMARK   76  A    between atoms: _194  and  _195
REMARK   77  A    between atoms: _194  and  _197
REMARK   78  A    between atoms: _200  and  _201
REMARK   79  A    between atoms: _206  and  _208
REMARK   80  A    between atoms: _208  and  _209
REMARK   81  A    between atoms: _208  and  _211
REMARK   82  A    between atoms: _211  and  _212
REMARK   83  A    between atoms: _215  and  _217
REMARK   84  A    between atoms: _217  and  _218
REMARK   85  A    between atoms: _217  and  _220
REMARK   86  A    between atoms: _220  and  _221
REMARK   87  A    between atoms: _221  and  _222
REMARK   88  A    between atoms: _225  and  _227
REMARK   89  A    between atoms: _227  and  _228
REMARK   90  A    between atoms: _227  and  _230
REMARK   91  A    between atoms: _230  and  _231
REMARK   92  A    between atoms: _236  and  _237
REMARK   93  A    between atoms: _239  and  _241
REMARK   94  A    between atoms: _241  and  _242
REMARK   95  A    between atoms: _241  and  _244
REMARK   96  A    between atoms: _244  and  _245
REMARK   97  A    between atoms: _248  and  _250
REMARK   98  A    between atoms: _250  and  _251
REMARK   99  A    between atoms: _250  and  _253
REMARK  100  A    between atoms: _256  and  _258
REMARK  101  A    between atoms: _258  and  _259
REMARK  102  A    between atoms: _258  and  _261
REMARK  103  A    between atoms: _261  and  _262
REMARK  104  A    between atoms: _262  and  _263
REMARK  105  A    between atoms: _265  and  _267
REMARK  106  A    between atoms: _267  and  _268
REMARK  107  A    between atoms: _267  and  _270
REMARK  108  A    between atoms: _270  and  _271
REMARK  109  A    between atoms: _281  and  _283
REMARK  110  A    between atoms: _283  and  _284
REMARK  111  A    between atoms: _283  and  _286
REMARK  112  A    between atoms: _286  and  _287
REMARK  113  A    between atoms: _290  and  _292
REMARK  114  A    between atoms: _292  and  _293
REMARK  115  A    between atoms: _295  and  _297
REMARK  116  A    between atoms: _297  and  _298
REMARK  117  A    between atoms: _300  and  _302
REMARK  118  A    between atoms: _302  and  _303
REMARK  119  A    between atoms: _302  and  _305
REMARK  120  A    between atoms: _308  and  _310
REMARK  121  A    between atoms: _310  and  _311
REMARK  122  A    between atoms: _310  and  _313
REMARK  123  A    between atoms: _316  and  _318
REMARK  124  A    between atoms: _318  and  _319
REMARK  125  A    between atoms: _322  and  _324
REMARK  126  A    between atoms: _324  and  _325
REMARK  127  A    between atoms: _324  and  _327
REMARK  128  A    between atoms: _330  and  _332
REMARK  129  A    between atoms: _332  and  _333
REMARK  130  A    between atoms: _332  and  _335
REMARK  131  A    between atoms: _335  and  _336
REMARK  132  A    between atoms: _346  and  _348
REMARK  133  A    between atoms: _348  and  _349
REMARK  134  A    between atoms: _348  and  _351
REMARK  135  A    between atoms: _351  and  _352
REMARK  136  A    between atoms: _362  and  _364
REMARK  137  A    between atoms: _364  and  _365
REMARK  138  A    between atoms: _364  and  _367
REMARK  139  A    between atoms: _367  and  _368
REMARK  140  A    between atoms: _373  and  _375
REMARK  141  A    between atoms: _375  and  _376
REMARK  142  A    between atoms: _375  and  _378
REMARK  143  A    between atoms: _378  and  _379
REMARK  144  A    between atoms: _384  and  _385
REMARK  145  A    between atoms: _387  and  _389
REMARK  146  A    between atoms: _389  and  _390
REMARK  147  A    between atoms: _389  and  _392
REMARK  148  A    between atoms: _395  and  _397
REMARK  149  A    between atoms: _397  and  _398
REMARK  150  A    between atoms: _397  and  _400
REMARK  151  A    between atoms: _400  and  _401
REMARK  152  A    between atoms: _404  and  _406
REMARK  153  A    between atoms: _406  and  _407
REMARK  154  A    between atoms: _406  and  _409
REMARK  155  A    between atoms: _409  and  _410
REMARK  156  A    between atoms: _413  and  _415
REMARK  157  A    between atoms: _415  and  _416
REMARK  158  A    between atoms: _415  and  _418
REMARK  159  A    between atoms: _418  and  _419
REMARK  160  A    between atoms: _424  and  _425
REMARK  161  A    between atoms: _427  and  _429
REMARK  162  A    between atoms: _429  and  _430
REMARK  163  A    between atoms: _429  and  _432
REMARK  164  A    between atoms: _432  and  _433
REMARK  165  A    between atoms: _439  and  _441
REMARK  166  A    between atoms: _441  and  _442
REMARK  167  A    between atoms: _441  and  _444
REMARK  168  A    between atoms: _444  and  _445
REMARK  169  A    between atoms: _448  and  _450
REMARK  170  A    between atoms: _450  and  _451
REMARK  171  A    between atoms: _450  and  _453
REMARK  172  A    between atoms: _453  and  _454
REMARK  173  A    between atoms: _460  and  _461
REMARK  174  A    between atoms: _466  and  _468
REMARK  175  A    between atoms: _468  and  _469
REMARK  176  A    between atoms: _468  and  _471
REMARK  177  A    between atoms: _471  and  _472
REMARK  178  A    between atoms: _477  and  _479
REMARK  179  A    between atoms: _479  and  _480
REMARK  180  A    between atoms: _479  and  _482
REMARK  181  A    between atoms: _482  and  _483
REMARK  182  A    between atoms: _493  and  _495
REMARK  183  A    between atoms: _495  and  _496
REMARK  184  A    between atoms: _499  and  _501
REMARK  185  A    between atoms: _501  and  _502
REMARK  186  A    between atoms: _501  and  _504
REMARK  187  A    between atoms: _504  and  _505
REMARK  188  A    between atoms: _508  and  _510
REMARK  189  A    between atoms: _510  and  _511
REMARK  190  A    between atoms: _510  and  _513
REMARK  191  A    between atoms: _513  and  _514
REMARK  192  A    between atoms: _516  and  _518
REMARK  193  A    between atoms: _518  and  _519
REMARK  194  A    between atoms: _518  and  _521
REMARK  195  A    between atoms: _521  and  _522
REMARK  196  A    between atoms: _524  and  _526
REMARK  197  A    between atoms: _526  and  _527
REMARK  198  A    between atoms: _526  and  _529
REMARK  199  A    between atoms: _529  and  _530
REMARK  200  A    between atoms: _530  and  _531
REMARK  201  A    between atoms: _531  and  _532
REMARK  202  A    between atoms: _532  and  _533
REMARK  203  A    between atoms: _537  and  _539
REMARK  204  A    between atoms: _539  and  _540
REMARK  205  A    between atoms: _539  and  _542
REMARK  206  A    between atoms: _542  and  _543
REMARK  207  A    between atoms: _549  and  _551
REMARK  208  A    between atoms: _551  and  _552
REMARK  209  A    between atoms: _551  and  _554
REMARK  210  A    between atoms: _554  and  _555
REMARK  211  A    between atoms: _558  and  _560
REMARK  212  A    between atoms: _560  and  _561
REMARK  213  A    between atoms: _560  and  _563
REMARK  214  A    between atoms: _563  and  _564
REMARK  215  A    between atoms: _567  and  _569
REMARK  216  A    between atoms: _569  and  _570
REMARK  217  A    between atoms: _569  and  _572
REMARK  218  A    between atoms: _572  and  _573
REMARK  219  A    between atoms: _576  and  _578
REMARK  220  A    between atoms: _578  and  _579
REMARK  221  A    between atoms: _578  and  _581
REMARK  222  A    between atoms: _581  and  _582
REMARK  223  A    between atoms: _585  and  _587
REMARK  224  A    between atoms: _587  and  _588
REMARK  225  A    between atoms: _587  and  _590
REMARK  226  A    between atoms: _590  and  _591
REMARK                            x       y       z     vdW  Elec       q    Type
REMARK                         _______ _______ _______ _____ _____    ______ ____
ROOT
ATOM      1  O   HOH     1      -2.884  -3.842  19.395  0.00  0.00    +0.000 OA
ENDROOT
TORSDOF 0
REMARK  Name = ../refined-set-2016/2xpk/2xpk_pocket.pdb
REMARK  226 active torsions:
REMARK  status: ('A' for Active; 'I' for Inactive)
REMARK    1  A    between atoms: _1  and  _3
REMARK    2  A    between atoms: _3  and  _4
REMARK    3  A    between atoms: _3  and  _6
REMARK    4  A    between atoms: _9  and  _11
REMARK    5  A    between atoms: _11  and  _12
REMARK    6  A    between atoms: _11  and  _14
REMARK    7  A    between atoms: _14  and  _15
REMARK    8  A    between atoms: _15  and  _16
REMARK    9  A    between atoms: _19  and  _21
REMARK   10  A    between atoms: _21  and  _22
REMARK   11  A    between atoms: _24  and  _26
REMARK   12  A    between atoms: _26  and  _27
REMARK   13  A    between atoms: _26  and  _29
REMARK   14  A    between atoms: _29  and  _30
REMARK   15  A    between atoms: _36  and  _38
REMARK   16  A    between atoms: _38  and  _39
REMARK   17  A    between atoms: _38  and  _41
REMARK   18  A    between atoms: _41  and  _42
REMARK   19  A    between atoms: _47  and  _48
REMARK   20  A    between atoms: _50  and  _52
REMARK   21  A    between atoms: _52  and  _53
REMARK   22  A    between atoms: _55  and  _57
REMARK   23  A    between atoms: _57  and  _58
REMARK   24  A    between atoms: _62  and  _63
REMARK   25  A    between atoms: _68  and  _70
REMARK   26  A    between atoms: _70  and  _71
REMARK   27  A    between atoms: _70  and  _73
REMARK   28  A    between atoms: _73  and  _74
REMARK   29  A    between atoms: _74  and  _75
REMARK   30  A    between atoms: _75  and  _76
REMARK   31  A    between atoms: _76  and  _77
REMARK   32  A    between atoms: _81  and  _83
REMARK   33  A    between atoms: _83  and  _84
REMARK   34  A    between atoms: _83  and  _86
REMARK   35  A    between atoms: _86  and  _87
REMARK   36  A    between atoms: _90  and  _92
REMARK   37  A    between atoms: _92  and  _93
REMARK   38  A    between atoms: _92  and  _95
REMARK   39  A    between atoms: _95  and  _96
REMARK   40  A    between atoms: _101  and  _103
REMARK   41  A    between atoms: _103  and  _104
REMARK   42  A    between atoms: _103  and  _106
REMARK   43  A    between atoms: _106  and  _107
REMARK   44  A    between atoms: _107  and  _108
REMARK   45  A    between atoms: _108  and  _109
REMARK   46  A    between atoms: _118  and  _120
REMARK   47  A    between atoms: _120  and  _121
REMARK   48  A    between atoms: _120  and  _123
REMARK   49  A    between atoms: _123  and  _124
REMARK   50  A    between atoms: _126  and  _128
REMARK   51  A    between atoms: _128  and  _129
REMARK   52  A    between atoms: _128  and  _131
REMARK   53  A    between atoms: _131  and  _132
REMARK   54  A    between atoms: _137  and  _138
REMARK   55  A    between atoms: _140  and  _142
REMARK   56  A    between atoms: _142  and  _143
REMARK   57  A    between atoms: _142  and  _145
REMARK   58  A    between atoms: _145  and  _146
REMARK   59  A    between atoms: _156  and  _158
REMARK   60  A    between atoms: _158  and  _159
REMARK   61  A    between atoms: _158  and  _161
REMARK   62  A    between atoms: _161  and  _162
REMARK   63  A    between atoms: _165  and  _167
REMARK   64  A    between atoms: _167  and  _168
REMARK   65  A    between atoms: _167  and  _170
REMARK   66  A    between atoms: _170  and  _171
REMARK   67  A    between atoms: _174  and  _176
REMARK   68  A    between atoms: _176  and  _177
REMARK   69  A    between atoms: _176  and  _179
REMARK   70  A    between atoms: _179  and  _180
REMARK   71  A    between atoms: _183  and  _185
REMARK   72  A    between atoms: _185  and  _186
REMARK   73  A    between atoms: _185  and  _188
REMARK   74  A    between atoms: _188  and  _189
REMARK   75  A    between atoms: _192  and  _194
REMARK   76  A    between atoms: _194  and  _195
REMARK   77  A    between atoms: _194  and  _197
REMARK   78  A    between atoms: _200  and  _201
REMARK   79  A    between atoms: _206  and  _208
REMARK   80  A    between atoms: _208  and  _209
REMARK   81  A    between atoms: _208  and  _211
REMARK   82  A    between atoms: _211  and  _212
REMARK   83  A    between atoms: _215  and  _217
REMARK   84  A    between atoms: _217  and  _218
REMARK   85  A    between atoms: _217  and  _220
REMARK   86  A    between atoms: _220  and  _221
REMARK   87  A    between atoms: _221  and  _222
REMARK   88  A    between atoms: _225  and  _227
REMARK   89  A    between atoms: _227  and  _228
REMARK   90  A    between atoms: _227  and  _230
REMARK   91  A    between atoms: _230  and  _231
REMARK   92  A    between atoms: _236  and  _237
REMARK   93  A    between atoms: _239  and  _241
REMARK   94  A    between atoms: _241  and  _242
REMARK   95  A    between atoms: _241  and  _244
REMARK   96  A    between atoms: _244  and  _245
REMARK   97  A    between atoms: _248  and  _250
REMARK   98  A    between atoms: _250  and  _251
REMARK   99  A    between atoms: _250  and  _253
REMARK  100  A    between atoms: _256  and  _258
REMARK  101  A    between atoms: _258  and  _259
REMARK  102  A    between atoms: _258  and  _261
REMARK  103  A    between atoms: _261  and  _262
REMARK  104  A    between atoms: _262  and  _263
REMARK  105  A    between atoms: _265  and  _267
REMARK  106  A    between atoms: _267  and  _268
REMARK  107  A    between atoms: _267  and  _270
REMARK  108  A    between atoms: _270  and  _271
REMARK  109  A    between atoms: _281  and  _283
REMARK  110  A    between atoms: _283  and  _284
REMARK  111  A    between atoms: _283  and  _286
REMARK  112  A    between atoms: _286  and  _287
REMARK  113  A    between atoms: _290  and  _292
REMARK  114  A    between atoms: _292  and  _293
REMARK  115  A    between atoms: _295  and  _297
REMARK  116  A    between atoms: _297  and  _298
REMARK  117  A    between atoms: _300  and  _302
REMARK  118  A    between atoms: _302  and  _303
REMARK  119  A    between atoms: _302  and  _305
REMARK  120  A    between atoms: _308  and  _310
REMARK  121  A    between atoms: _310  and  _311
REMARK  122  A    between atoms: _310  and  _313
REMARK  123  A    between atoms: _316  and  _318
REMARK  124  A    between atoms: _318  and  _319
REMARK  125  A    between atoms: _322  and  _324
REMARK  126  A    between atoms: _324  and  _325
REMARK  127  A    between atoms: _324  and  _327
REMARK  128  A    between atoms: _330  and  _332
REMARK  129  A    between atoms: _332  and  _333
REMARK  130  A    between atoms: _332  and  _335
REMARK  131  A    between atoms: _335  and  _336
REMARK  132  A    between atoms: _346  and  _348
REMARK  133  A    between atoms: _348  and  _349
REMARK  134  A    between atoms: _348  and  _351
REMARK  135  A    between atoms: _351  and  _352
REMARK  136  A    between atoms: _362  and  _364
REMARK  137  A    between atoms: _364  and  _365
REMARK  138  A    between atoms: _364  and  _367
REMARK  139  A    between atoms: _367  and  _368
REMARK  140  A    between atoms: _373  and  _375
REMARK  141  A    between atoms: _375  and  _376
REMARK  142  A    between atoms: _375  and  _378
REMARK  143  A    between atoms: _378  and  _379
REMARK  144  A    between atoms: _384  and  _385
REMARK  145  A    between atoms: _387  and  _389
REMARK  146  A    between atoms: _389  and  _390
REMARK  147  A    between atoms: _389  and  _392
REMARK  148  A    between atoms: _395  and  _397
REMARK  149  A    between atoms: _397  and  _398
REMARK  150  A    between atoms: _397  and  _400
REMARK  151  A    between atoms: _400  and  _401
REMARK  152  A    between atoms: _404  and  _406
REMARK  153  A    between atoms: _406  and  _407
REMARK  154  A    between atoms: _406  and  _409
REMARK  155  A    between atoms: _409  and  _410
REMARK  156  A    between atoms: _413  and  _415
REMARK  157  A    between atoms: _415  and  _416
REMARK  158  A    between atoms: _415  and  _418
REMARK  159  A    between atoms: _418  and  _419
REMARK  160  A    between atoms: _424  and  _425
REMARK  161  A    between atoms: _427  and  _429
REMARK  162  A    between atoms: _429  and  _430
REMARK  163  A    between atoms: _429  and  _432
REMARK  164  A    between atoms: _432  and  _433
REMARK  165  A    between atoms: _439  and  _441
REMARK  166  A    between atoms: _441  and  _442
REMARK  167  A    between atoms: _441  and  _444
REMARK  168  A    between atoms: _444  and  _445
REMARK  169  A    between atoms: _448  and  _450
REMARK  170  A    between atoms: _450  and  _451
REMARK  171  A    between atoms: _450  and  _453
REMARK  172  A    between atoms: _453  and  _454
REMARK  173  A    between atoms: _460  and  _461
REMARK  174  A    between atoms: _466  and  _468
REMARK  175  A    between atoms: _468  and  _469
REMARK  176  A    between atoms: _468  and  _471
REMARK  177  A    between atoms: _471  and  _472
REMARK  178  A    between atoms: _477  and  _479
REMARK  179  A    between atoms: _479  and  _480
REMARK  180  A    between atoms: _479  and  _482
REMARK  181  A    between atoms: _482  and  _483
REMARK  182  A    between atoms: _493  and  _495
REMARK  183  A    between atoms: _495  and  _496
REMARK  184  A    between atoms: _499  and  _501
REMARK  185  A    between atoms: _501  and  _502
REMARK  186  A    between atoms: _501  and  _504
REMARK  187  A    between atoms: _504  and  _505
REMARK  188  A    between atoms: _508  and  _510
REMARK  189  A    between atoms: _510  and  _511
REMARK  190  A    between atoms: _510  and  _513
REMARK  191  A    between atoms: _513  and  _514
REMARK  192  A    between atoms: _516  and  _518
REMARK  193  A    between atoms: _518  and  _519
REMARK  194  A    between atoms: _518  and  _521
REMARK  195  A    between atoms: _521  and  _522
REMARK  196  A    between atoms: _524  and  _526
REMARK  197  A    between atoms: _526  and  _527
REMARK  198  A    between atoms: _526  and  _529
REMARK  199  A    between atoms: _529  and  _530
REMARK  200  A    between atoms: _530  and  _531
REMARK  201  A    between atoms: _531  and  _532
REMARK  202  A    between atoms: _532  and  _533
REMARK  203  A    between atoms: _537  and  _539
REMARK  204  A    between atoms: _539  and  _540
REMARK  205  A    between atoms: _539  and  _542
REMARK  206  A    between atoms: _542  and  _543
REMARK  207  A    between atoms: _549  and  _551
REMARK  208  A    between atoms: _551  and  _552
REMARK  209  A    between atoms: _551  and  _554
REMARK  210  A    between atoms: _554  and  _555
REMARK  211  A    between atoms: _558  and  _560
REMARK  212  A    between atoms: _560  and  _561
REMARK  213  A    between atoms: _560  and  _563
REMARK  214  A    between atoms: _563  and  _564
REMARK  215  A    between atoms: _567  and  _569
REMARK  216  A    between atoms: _569  and  _570
REMARK  217  A    between atoms: _569  and  _572
REMARK  218  A    between atoms: _572  and  _573
REMARK  219  A    between atoms: _576  and  _578
REMARK  220  A    between atoms: _578  and  _579
REMARK  221  A    between atoms: _578  and  _581
REMARK  222  A    between atoms: _581  and  _582
REMARK  223  A    between atoms: _585  and  _587
REMARK  224  A    between atoms: _587  and  _588
REMARK  225  A    between atoms: _587  and  _590
REMARK  226  A    between atoms: _590  and  _591
REMARK                            x       y       z     vdW  Elec       q    Type
REMARK                         _______ _______ _______ _____ _____    ______ ____
ROOT
ATOM      1  O   HOH     1       2.041  -1.318  25.389  0.00  0.00    +0.000 OA
ENDROOT
TORSDOF 0
REMARK  Name = ../refined-set-2016/2xpk/2xpk_pocket.pdb
REMARK  226 active torsions:
REMARK  status: ('A' for Active; 'I' for Inactive)
REMARK    1  A    between atoms: _1  and  _3
REMARK    2  A    between atoms: _3  and  _4
REMARK    3  A    between atoms: _3  and  _6
REMARK    4  A    between atoms: _9  and  _11
REMARK    5  A    between atoms: _11  and  _12
REMARK    6  A    between atoms: _11  and  _14
REMARK    7  A    between atoms: _14  and  _15
REMARK    8  A    between atoms: _15  and  _16
REMARK    9  A    between atoms: _19  and  _21
REMARK   10  A    between atoms: _21  and  _22
REMARK   11  A    between atoms: _24  and  _26
REMARK   12  A    between atoms: _26  and  _27
REMARK   13  A    between atoms: _26  and  _29
REMARK   14  A    between atoms: _29  and  _30
REMARK   15  A    between atoms: _36  and  _38
REMARK   16  A    between atoms: _38  and  _39
REMARK   17  A    between atoms: _38  and  _41
REMARK   18  A    between atoms: _41  and  _42
REMARK   19  A    between atoms: _47  and  _48
REMARK   20  A    between atoms: _50  and  _52
REMARK   21  A    between atoms: _52  and  _53
REMARK   22  A    between atoms: _55  and  _57
REMARK   23  A    between atoms: _57  and  _58
REMARK   24  A    between atoms: _62  and  _63
REMARK   25  A    between atoms: _68  and  _70
REMARK   26  A    between atoms: _70  and  _71
REMARK   27  A    between atoms: _70  and  _73
REMARK   28  A    between atoms: _73  and  _74
REMARK   29  A    between atoms: _74  and  _75
REMARK   30  A    between atoms: _75  and  _76
REMARK   31  A    between atoms: _76  and  _77
REMARK   32  A    between atoms: _81  and  _83
REMARK   33  A    between atoms: _83  and  _84
REMARK   34  A    between atoms: _83  and  _86
REMARK   35  A    between atoms: _86  and  _87
REMARK   36  A    between atoms: _90  and  _92
REMARK   37  A    between atoms: _92  and  _93
REMARK   38  A    between atoms: _92  and  _95
REMARK   39  A    between atoms: _95  and  _96
REMARK   40  A    between atoms: _101  and  _103
REMARK   41  A    between atoms: _103  and  _104
REMARK   42  A    between atoms: _103  and  _106
REMARK   43  A    between atoms: _106  and  _107
REMARK   44  A    between atoms: _107  and  _108
REMARK   45  A    between atoms: _108  and  _109
REMARK   46  A    between atoms: _118  and  _120
REMARK   47  A    between atoms: _120  and  _121
REMARK   48  A    between atoms: _120  and  _123
REMARK   49  A    between atoms: _123  and  _124
REMARK   50  A    between atoms: _126  and  _128
REMARK   51  A    between atoms: _128  and  _129
REMARK   52  A    between atoms: _128  and  _131
REMARK   53  A    between atoms: _131  and  _132
REMARK   54  A    between atoms: _137  and  _138
REMARK   55  A    between atoms: _140  and  _142
REMARK   56  A    between atoms: _142  and  _143
REMARK   57  A    between atoms: _142  and  _145
REMARK   58  A    between atoms: _145  and  _146
REMARK   59  A    between atoms: _156  and  _158
REMARK   60  A    between atoms: _158  and  _159
REMARK   61  A    between atoms: _158  and  _161
REMARK   62  A    between atoms: _161  and  _162
REMARK   63  A    between atoms: _165  and  _167
REMARK   64  A    between atoms: _167  and  _168
REMARK   65  A    between atoms: _167  and  _170
REMARK   66  A    between atoms: _170  and  _171
REMARK   67  A    between atoms: _174  and  _176
REMARK   68  A    between atoms: _176  and  _177
REMARK   69  A    between atoms: _176  and  _179
REMARK   70  A    between atoms: _179  and  _180
REMARK   71  A    between atoms: _183  and  _185
REMARK   72  A    between atoms: _185  and  _186
REMARK   73  A    between atoms: _185  and  _188
REMARK   74  A    between atoms: _188  and  _189
REMARK   75  A    between atoms: _192  and  _194
REMARK   76  A    between atoms: _194  and  _195
REMARK   77  A    between atoms: _194  and  _197
REMARK   78  A    between atoms: _200  and  _201
REMARK   79  A    between atoms: _206  and  _208
REMARK   80  A    between atoms: _208  and  _209
REMARK   81  A    between atoms: _208  and  _211
REMARK   82  A    between atoms: _211  and  _212
REMARK   83  A    between atoms: _215  and  _217
REMARK   84  A    between atoms: _217  and  _218
REMARK   85  A    between atoms: _217  and  _220
REMARK   86  A    between atoms: _220  and  _221
REMARK   87  A    between atoms: _221  and  _222
REMARK   88  A    between atoms: _225  and  _227
REMARK   89  A    between atoms: _227  and  _228
REMARK   90  A    between atoms: _227  and  _230
REMARK   91  A    between atoms: _230  and  _231
REMARK   92  A    between atoms: _236  and  _237
REMARK   93  A    between atoms: _239  and  _241
REMARK   94  A    between atoms: _241  and  _242
REMARK   95  A    between atoms: _241  and  _244
REMARK   96  A    between atoms: _244  and  _245
REMARK   97  A    between atoms: _248  and  _250
REMARK   98  A    between atoms: _250  and  _251
REMARK   99  A    between atoms: _250  and  _253
REMARK  100  A    between atoms: _256  and  _258
REMARK  101  A    between atoms: _258  and  _259
REMARK  102  A    between atoms: _258  and  _261
REMARK  103  A    between atoms: _261  and  _262
REMARK  104  A    between atoms: _262  and  _263
REMARK  105  A    between atoms: _265  and  _267
REMARK  106  A    between atoms: _267  and  _268
REMARK  107  A    between atoms: _267  and  _270
REMARK  108  A    between atoms: _270  and  _271
REMARK  109  A    between atoms: _281  and  _283
REMARK  110  A    between atoms: _283  and  _284
REMARK  111  A    between atoms: _283  and  _286
REMARK  112  A    between atoms: _286  and  _287
REMARK  113  A    between atoms: _290  and  _292
REMARK  114  A    between atoms: _292  and  _293
REMARK  115  A    between atoms: _295  and  _297
REMARK  116  A    between atoms: _297  and  _298
REMARK  117  A    between atoms: _300  and  _302
REMARK  118  A    between atoms: _302  and  _303
REMARK  119  A    between atoms: _302  and  _305
REMARK  120  A    between atoms: _308  and  _310
REMARK  121  A    between atoms: _310  and  _311
REMARK  122  A    between atoms: _310  and  _313
REMARK  123  A    between atoms: _316  and  _318
REMARK  124  A    between atoms: _318  and  _319
REMARK  125  A    between atoms: _322  and  _324
REMARK  126  A    between atoms: _324  and  _325
REMARK  127  A    between atoms: _324  and  _327
REMARK  128  A    between atoms: _330  and  _332
REMARK  129  A    between atoms: _332  and  _333
REMARK  130  A    between atoms: _332  and  _335
REMARK  131  A    between atoms: _335  and  _336
REMARK  132  A    between atoms: _346  and  _348
REMARK  133  A    between atoms: _348  and  _349
REMARK  134  A    between atoms: _348  and  _351
REMARK  135  A    between atoms: _351  and  _352
REMARK  136  A    between atoms: _362  and  _364
REMARK  137  A    between atoms: _364  and  _365
REMARK  138  A    between atoms: _364  and  _367
REMARK  139  A    between atoms: _367  and  _368
REMARK  140  A    between atoms: _373  and  _375
REMARK  141  A    between atoms: _375  and  _376
REMARK  142  A    between atoms: _375  and  _378
REMARK  143  A    between atoms: _378  and  _379
REMARK  144  A    between atoms: _384  and  _385
REMARK  145  A    between atoms: _387  and  _389
REMARK  146  A    between atoms: _389  and  _390
REMARK  147  A    between atoms: _389  and  _392
REMARK  148  A    between atoms: _395  and  _397
REMARK  149  A    between atoms: _397  and  _398
REMARK  150  A    between atoms: _397  and  _400
REMARK  151  A    between atoms: _400  and  _401
REMARK  152  A    between atoms: _404  and  _406
REMARK  153  A    between atoms: _406  and  _407
REMARK  154  A    between atoms: _406  and  _409
REMARK  155  A    between atoms: _409  and  _410
REMARK  156  A    between atoms: _413  and  _415
REMARK  157  A    between atoms: _415  and  _416
REMARK  158  A    between atoms: _415  and  _418
REMARK  159  A    between atoms: _418  and  _419
REMARK  160  A    between atoms: _424  and  _425
REMARK  161  A    between atoms: _427  and  _429
REMARK  162  A    between atoms: _429  and  _430
REMARK  163  A    between atoms: _429  and  _432
REMARK  164  A    between atoms: _432  and  _433
REMARK  165  A    between atoms: _439  and  _441
REMARK  166  A    between atoms: _441  and  _442
REMARK  167  A    between atoms: _441  and  _444
REMARK  168  A    between atoms: _444  and  _445
REMARK  169  A    between atoms: _448  and  _450
REMARK  170  A    between atoms: _450  and  _451
REMARK  171  A    between atoms: _450  and  _453
REMARK  172  A    between atoms: _453  and  _454
REMARK  173  A    between atoms: _460  and  _461
REMARK  174  A    between atoms: _466  and  _468
REMARK  175  A    between atoms: _468  and  _469
REMARK  176  A    between atoms: _468  and  _471
REMARK  177  A    between atoms: _471  and  _472
REMARK  178  A    between atoms: _477  and  _479
REMARK  179  A    between atoms: _479  and  _480
REMARK  180  A    between atoms: _479  and  _482
REMARK  181  A    between atoms: _482  and  _483
REMARK  182  A    between atoms: _493  and  _495
REMARK  183  A    between atoms: _495  and  _496
REMARK  184  A    between atoms: _499  and  _501
REMARK  185  A    between atoms: _501  and  _502
REMARK  186  A    between atoms: _501  and  _504
REMARK  187  A    between atoms: _504  and  _505
REMARK  188  A    between atoms: _508  and  _510
REMARK  189  A    between atoms: _510  and  _511
REMARK  190  A    between atoms: _510  and  _513
REMARK  191  A    between atoms: _513  and  _514
REMARK  192  A    between atoms: _516  and  _518
REMARK  193  A    between atoms: _518  and  _519
REMARK  194  A    between atoms: _518  and  _521
REMARK  195  A    between atoms: _521  and  _522
REMARK  196  A    between atoms: _524  and  _526
REMARK  197  A    between atoms: _526  and  _527
REMARK  198  A    between atoms: _526  and  _529
REMARK  199  A    between atoms: _529  and  _530
REMARK  200  A    between atoms: _530  and  _531
REMARK  201  A    between atoms: _531  and  _532
REMARK  202  A    between atoms: _532  and  _533
REMARK  203  A    between atoms: _537  and  _539
REMARK  204  A    between atoms: _539  and  _540
REMARK  205  A    between atoms: _539  and  _542
REMARK  206  A    between atoms: _542  and  _543
REMARK  207  A    between atoms: _549  and  _551
REMARK  208  A    between atoms: _551  and  _552
REMARK  209  A    between atoms: _551  and  _554
REMARK  210  A    between atoms: _554  and  _555
REMARK  211  A    between atoms: _558  and  _560
REMARK  212  A    between atoms: _560  and  _561
REMARK  213  A    between atoms: _560  and  _563
REMARK  214  A    between atoms: _563  and  _564
REMARK  215  A    between atoms: _567  and  _569
REMARK  216  A    between atoms: _569  and  _570
REMARK  217  A    between atoms: _569  and  _572
REMARK  218  A    between atoms: _572  and  _573
REMARK  219  A    between atoms: _576  and  _578
REMARK  220  A    between atoms: _578  and  _579
REMARK  221  A    between atoms: _578  and  _581
REMARK  222  A    between atoms: _581  and  _582
REMARK  223  A    between atoms: _585  and  _587
REMARK  224  A    between atoms: _587  and  _588
REMARK  225  A    between atoms: _587  and  _590
REMARK  226  A    between atoms: _590  and  _591
REMARK                            x       y       z     vdW  Elec       q    Type
REMARK                         _______ _______ _______ _____ _____    ______ ____
ROOT
ATOM      1  O   HOH     1       3.360  -2.070  23.242  0.00  0.00    +0.000 OA
ENDROOT
TORSDOF 0
REMARK  Name = ../refined-set-2016/2xpk/2xpk_pocket.pdb
REMARK  226 active torsions:
REMARK  status: ('A' for Active; 'I' for Inactive)
REMARK    1  A    between atoms: _1  and  _3
REMARK    2  A    between atoms: _3  and  _4
REMARK    3  A    between atoms: _3  and  _6
REMARK    4  A    between atoms: _9  and  _11
REMARK    5  A    between atoms: _11  and  _12
REMARK    6  A    between atoms: _11  and  _14
REMARK    7  A    between atoms: _14  and  _15
REMARK    8  A    between atoms: _15  and  _16
REMARK    9  A    between atoms: _19  and  _21
REMARK   10  A    between atoms: _21  and  _22
REMARK   11  A    between atoms: _24  and  _26
REMARK   12  A    between atoms: _26  and  _27
REMARK   13  A    between atoms: _26  and  _29
REMARK   14  A    between atoms: _29  and  _30
REMARK   15  A    between atoms: _36  and  _38
REMARK   16  A    between atoms: _38  and  _39
REMARK   17  A    between atoms: _38  and  _41
REMARK   18  A    between atoms: _41  and  _42
REMARK   19  A    between atoms: _47  and  _48
REMARK   20  A    between atoms: _50  and  _52
REMARK   21  A    between atoms: _52  and  _53
REMARK   22  A    between atoms: _55  and  _57
REMARK   23  A    between atoms: _57  and  _58
REMARK   24  A    between atoms: _62  and  _63
REMARK   25  A    between atoms: _68  and  _70
REMARK   26  A    between atoms: _70  and  _71
REMARK   27  A    between atoms: _70  and  _73
REMARK   28  A    between atoms: _73  and  _74
REMARK   29  A    between atoms: _74  and  _75
REMARK   30  A    between atoms: _75  and  _76
REMARK   31  A    between atoms: _76  and  _77
REMARK   32  A    between atoms: _81  and  _83
REMARK   33  A    between atoms: _83  and  _84
REMARK   34  A    between atoms: _83  and  _86
REMARK   35  A    between atoms: _86  and  _87
REMARK   36  A    between atoms: _90  and  _92
REMARK   37  A    between atoms: _92  and  _93
REMARK   38  A    between atoms: _92  and  _95
REMARK   39  A    between atoms: _95  and  _96
REMARK   40  A    between atoms: _101  and  _103
REMARK   41  A    between atoms: _103  and  _104
REMARK   42  A    between atoms: _103  and  _106
REMARK   43  A    between atoms: _106  and  _107
REMARK   44  A    between atoms: _107  and  _108
REMARK   45  A    between atoms: _108  and  _109
REMARK   46  A    between atoms: _118  and  _120
REMARK   47  A    between atoms: _120  and  _121
REMARK   48  A    between atoms: _120  and  _123
REMARK   49  A    between atoms: _123  and  _124
REMARK   50  A    between atoms: _126  and  _128
REMARK   51  A    between atoms: _128  and  _129
REMARK   52  A    between atoms: _128  and  _131
REMARK   53  A    between atoms: _131  and  _132
REMARK   54  A    between atoms: _137  and  _138
REMARK   55  A    between atoms: _140  and  _142
REMARK   56  A    between atoms: _142  and  _143
REMARK   57  A    between atoms: _142  and  _145
REMARK   58  A    between atoms: _145  and  _146
REMARK   59  A    between atoms: _156  and  _158
REMARK   60  A    between atoms: _158  and  _159
REMARK   61  A    between atoms: _158  and  _161
REMARK   62  A    between atoms: _161  and  _162
REMARK   63  A    between atoms: _165  and  _167
REMARK   64  A    between atoms: _167  and  _168
REMARK   65  A    between atoms: _167  and  _170
REMARK   66  A    between atoms: _170  and  _171
REMARK   67  A    between atoms: _174  and  _176
REMARK   68  A    between atoms: _176  and  _177
REMARK   69  A    between atoms: _176  and  _179
REMARK   70  A    between atoms: _179  and  _180
REMARK   71  A    between atoms: _183  and  _185
REMARK   72  A    between atoms: _185  and  _186
REMARK   73  A    between atoms: _185  and  _188
REMARK   74  A    between atoms: _188  and  _189
REMARK   75  A    between atoms: _192  and  _194
REMARK   76  A    between atoms: _194  and  _195
REMARK   77  A    between atoms: _194  and  _197
REMARK   78  A    between atoms: _200  and  _201
REMARK   79  A    between atoms: _206  and  _208
REMARK   80  A    between atoms: _208  and  _209
REMARK   81  A    between atoms: _208  and  _211
REMARK   82  A    between atoms: _211  and  _212
REMARK   83  A    between atoms: _215  and  _217
REMARK   84  A    between atoms: _217  and  _218
REMARK   85  A    between atoms: _217  and  _220
REMARK   86  A    between atoms: _220  and  _221
REMARK   87  A    between atoms: _221  and  _222
REMARK   88  A    between atoms: _225  and  _227
REMARK   89  A    between atoms: _227  and  _228
REMARK   90  A    between atoms: _227  and  _230
REMARK   91  A    between atoms: _230  and  _231
REMARK   92  A    between atoms: _236  and  _237
REMARK   93  A    between atoms: _239  and  _241
REMARK   94  A    between atoms: _241  and  _242
REMARK   95  A    between atoms: _241  and  _244
REMARK   96  A    between atoms: _244  and  _245
REMARK   97  A    between atoms: _248  and  _250
REMARK   98  A    between atoms: _250  and  _251
REMARK   99  A    between atoms: _250  and  _253
REMARK  100  A    between atoms: _256  and  _258
REMARK  101  A    between atoms: _258  and  _259
REMARK  102  A    between atoms: _258  and  _261
REMARK  103  A    between atoms: _261  and  _262
REMARK  104  A    between atoms: _262  and  _263
REMARK  105  A    between atoms: _265  and  _267
REMARK  106  A    between atoms: _267  and  _268
REMARK  107  A    between atoms: _267  and  _270
REMARK  108  A    between atoms: _270  and  _271
REMARK  109  A    between atoms: _281  and  _283
REMARK  110  A    between atoms: _283  and  _284
REMARK  111  A    between atoms: _283  and  _286
REMARK  112  A    between atoms: _286  and  _287
REMARK  113  A    between atoms: _290  and  _292
REMARK  114  A    between atoms: _292  and  _293
REMARK  115  A    between atoms: _295  and  _297
REMARK  116  A    between atoms: _297  and  _298
REMARK  117  A    between atoms: _300  and  _302
REMARK  118  A    between atoms: _302  and  _303
REMARK  119  A    between atoms: _302  and  _305
REMARK  120  A    between atoms: _308  and  _310
REMARK  121  A    between atoms: _310  and  _311
REMARK  122  A    between atoms: _310  and  _313
REMARK  123  A    between atoms: _316  and  _318
REMARK  124  A    between atoms: _318  and  _319
REMARK  125  A    between atoms: _322  and  _324
REMARK  126  A    between atoms: _324  and  _325
REMARK  127  A    between atoms: _324  and  _327
REMARK  128  A    between atoms: _330  and  _332
REMARK  129  A    between atoms: _332  and  _333
REMARK  130  A    between atoms: _332  and  _335
REMARK  131  A    between atoms: _335  and  _336
REMARK  132  A    between atoms: _346  and  _348
REMARK  133  A    between atoms: _348  and  _349
REMARK  134  A    between atoms: _348  and  _351
REMARK  135  A    between atoms: _351  and  _352
REMARK  136  A    between atoms: _362  and  _364
REMARK  137  A    between atoms: _364  and  _365
REMARK  138  A    between atoms: _364  and  _367
REMARK  139  A    between atoms: _367  and  _368
REMARK  140  A    between atoms: _373  and  _375
REMARK  141  A    between atoms: _375  and  _376
REMARK  142  A    between atoms: _375  and  _378
REMARK  143  A    between atoms: _378  and  _379
REMARK  144  A    between atoms: _384  and  _385
REMARK  145  A    between atoms: _387  and  _389
REMARK  146  A    between atoms: _389  and  _390
REMARK  147  A    between atoms: _389  and  _392
REMARK  148  A    between atoms: _395  and  _397
REMARK  149  A    between atoms: _397  and  _398
REMARK  150  A    between atoms: _397  and  _400
REMARK  151  A    between atoms: _400  and  _401
REMARK  152  A    between atoms: _404  and  _406
REMARK  153  A    between atoms: _406  and  _407
REMARK  154  A    between atoms: _406  and  _409
REMARK  155  A    between atoms: _409  and  _410
REMARK  156  A    between atoms: _413  and  _415
REMARK  157  A    between atoms: _415  and  _416
REMARK  158  A    between atoms: _415  and  _418
REMARK  159  A    between atoms: _418  and  _419
REMARK  160  A    between atoms: _424  and  _425
REMARK  161  A    between atoms: _427  and  _429
REMARK  162  A    between atoms: _429  and  _430
REMARK  163  A    between atoms: _429  and  _432
REMARK  164  A    between atoms: _432  and  _433
REMARK  165  A    between atoms: _439  and  _441
REMARK  166  A    between atoms: _441  and  _442
REMARK  167  A    between atoms: _441  and  _444
REMARK  168  A    between atoms: _444  and  _445
REMARK  169  A    between atoms: _448  and  _450
REMARK  170  A    between atoms: _450  and  _451
REMARK  171  A    between atoms: _450  and  _453
REMARK  172  A    between atoms: _453  and  _454
REMARK  173  A    between atoms: _460  and  _461
REMARK  174  A    between atoms: _466  and  _468
REMARK  175  A    between atoms: _468  and  _469
REMARK  176  A    between atoms: _468  and  _471
REMARK  177  A    between atoms: _471  and  _472
REMARK  178  A    between atoms: _477  and  _479
REMARK  179  A    between atoms: _479  and  _480
REMARK  180  A    between atoms: _479  and  _482
REMARK  181  A    between atoms: _482  and  _483
REMARK  182  A    between atoms: _493  and  _495
REMARK  183  A    between atoms: _495  and  _496
REMARK  184  A    between atoms: _499  and  _501
REMARK  185  A    between atoms: _501  and  _502
REMARK  186  A    between atoms: _501  and  _504
REMARK  187  A    between atoms: _504  and  _505
REMARK  188  A    between atoms: _508  and  _510
REMARK  189  A    between atoms: _510  and  _511
REMARK  190  A    between atoms: _510  and  _513
REMARK  191  A    between atoms: _513  and  _514
REMARK  192  A    between atoms: _516  and  _518
REMARK  193  A    between atoms: _518  and  _519
REMARK  194  A    between atoms: _518  and  _521
REMARK  195  A    between atoms: _521  and  _522
REMARK  196  A    between atoms: _524  and  _526
REMARK  197  A    between atoms: _526  and  _527
REMARK  198  A    between atoms: _526  and  _529
REMARK  199  A    between atoms: _529  and  _530
REMARK  200  A    between atoms: _530  and  _531
REMARK  201  A    between atoms: _531  and  _532
REMARK  202  A    between atoms: _532  and  _533
REMARK  203  A    between atoms: _537  and  _539
REMARK  204  A    between atoms: _539  and  _540
REMARK  205  A    between atoms: _539  and  _542
REMARK  206  A    between atoms: _542  and  _543
REMARK  207  A    between atoms: _549  and  _551
REMARK  208  A    between atoms: _551  and  _552
REMARK  209  A    between atoms: _551  and  _554
REMARK  210  A    between atoms: _554  and  _555
REMARK  211  A    between atoms: _558  and  _560
REMARK  212  A    between atoms: _560  and  _561
REMARK  213  A    between atoms: _560  and  _563
REMARK  214  A    between atoms: _563  and  _564
REMARK  215  A    between atoms: _567  and  _569
REMARK  216  A    between atoms: _569  and  _570
REMARK  217  A    between atoms: _569  and  _572
REMARK  218  A    between atoms: _572  and  _573
REMARK  219  A    between atoms: _576  and  _578
REMARK  220  A    between atoms: _578  and  _579
REMARK  221  A    between atoms: _578  and  _581
REMARK  222  A    between atoms: _581  and  _582
REMARK  223  A    between atoms: _585  and  _587
REMARK  224  A    between atoms: _587  and  _588
REMARK  225  A    between atoms: _587  and  _590
REMARK  226  A    between atoms: _590  and  _591
REMARK                            x       y       z     vdW  Elec       q    Type
REMARK                         _______ _______ _______ _____ _____    ______ ____
ROOT
ATOM      1  O   HOH     1       4.038   0.638  22.117  0.00  0.00    +0.000 OA
ENDROOT
TORSDOF 0
REMARK  Name = ../refined-set-2016/2xpk/2xpk_pocket.pdb
REMARK  226 active torsions:
REMARK  status: ('A' for Active; 'I' for Inactive)
REMARK    1  A    between atoms: _1  and  _3
REMARK    2  A    between atoms: _3  and  _4
REMARK    3  A    between atoms: _3  and  _6
REMARK    4  A    between atoms: _9  and  _11
REMARK    5  A    between atoms: _11  and  _12
REMARK    6  A    between atoms: _11  and  _14
REMARK    7  A    between atoms: _14  and  _15
REMARK    8  A    between atoms: _15  and  _16
REMARK    9  A    between atoms: _19  and  _21
REMARK   10  A    between atoms: _21  and  _22
REMARK   11  A    between atoms: _24  and  _26
REMARK   12  A    between atoms: _26  and  _27
REMARK   13  A    between atoms: _26  and  _29
REMARK   14  A    between atoms: _29  and  _30
REMARK   15  A    between atoms: _36  and  _38
REMARK   16  A    between atoms: _38  and  _39
REMARK   17  A    between atoms: _38  and  _41
REMARK   18  A    between atoms: _41  and  _42
REMARK   19  A    between atoms: _47  and  _48
REMARK   20  A    between atoms: _50  and  _52
REMARK   21  A    between atoms: _52  and  _53
REMARK   22  A    between atoms: _55  and  _57
REMARK   23  A    between atoms: _57  and  _58
REMARK   24  A    between atoms: _62  and  _63
REMARK   25  A    between atoms: _68  and  _70
REMARK   26  A    between atoms: _70  and  _71
REMARK   27  A    between atoms: _70  and  _73
REMARK   28  A    between atoms: _73  and  _74
REMARK   29  A    between atoms: _74  and  _75
REMARK   30  A    between atoms: _75  and  _76
REMARK   31  A    between atoms: _76  and  _77
REMARK   32  A    between atoms: _81  and  _83
REMARK   33  A    between atoms: _83  and  _84
REMARK   34  A    between atoms: _83  and  _86
REMARK   35  A    between atoms: _86  and  _87
REMARK   36  A    between atoms: _90  and  _92
REMARK   37  A    between atoms: _92  and  _93
REMARK   38  A    between atoms: _92  and  _95
REMARK   39  A    between atoms: _95  and  _96
REMARK   40  A    between atoms: _101  and  _103
REMARK   41  A    between atoms: _103  and  _104
REMARK   42  A    between atoms: _103  and  _106
REMARK   43  A    between atoms: _106  and  _107
REMARK   44  A    between atoms: _107  and  _108
REMARK   45  A    between atoms: _108  and  _109
REMARK   46  A    between atoms: _118  and  _120
REMARK   47  A    between atoms: _120  and  _121
REMARK   48  A    between atoms: _120  and  _123
REMARK   49  A    between atoms: _123  and  _124
REMARK   50  A    between atoms: _126  and  _128
REMARK   51  A    between atoms: _128  and  _129
REMARK   52  A    between atoms: _128  and  _131
REMARK   53  A    between atoms: _131  and  _132
REMARK   54  A    between atoms: _137  and  _138
REMARK   55  A    between atoms: _140  and  _142
REMARK   56  A    between atoms: _142  and  _143
REMARK   57  A    between atoms: _142  and  _145
REMARK   58  A    between atoms: _145  and  _146
REMARK   59  A    between atoms: _156  and  _158
REMARK   60  A    between atoms: _158  and  _159
REMARK   61  A    between atoms: _158  and  _161
REMARK   62  A    between atoms: _161  and  _162
REMARK   63  A    between atoms: _165  and  _167
REMARK   64  A    between atoms: _167  and  _168
REMARK   65  A    between atoms: _167  and  _170
REMARK   66  A    between atoms: _170  and  _171
REMARK   67  A    between atoms: _174  and  _176
REMARK   68  A    between atoms: _176  and  _177
REMARK   69  A    between atoms: _176  and  _179
REMARK   70  A    between atoms: _179  and  _180
REMARK   71  A    between atoms: _183  and  _185
REMARK   72  A    between atoms: _185  and  _186
REMARK   73  A    between atoms: _185  and  _188
REMARK   74  A    between atoms: _188  and  _189
REMARK   75  A    between atoms: _192  and  _194
REMARK   76  A    between atoms: _194  and  _195
REMARK   77  A    between atoms: _194  and  _197
REMARK   78  A    between atoms: _200  and  _201
REMARK   79  A    between atoms: _206  and  _208
REMARK   80  A    between atoms: _208  and  _209
REMARK   81  A    between atoms: _208  and  _211
REMARK   82  A    between atoms: _211  and  _212
REMARK   83  A    between atoms: _215  and  _217
REMARK   84  A    between atoms: _217  and  _218
REMARK   85  A    between atoms: _217  and  _220
REMARK   86  A    between atoms: _220  and  _221
REMARK   87  A    between atoms: _221  and  _222
REMARK   88  A    between atoms: _225  and  _227
REMARK   89  A    between atoms: _227  and  _228
REMARK   90  A    between atoms: _227  and  _230
REMARK   91  A    between atoms: _230  and  _231
REMARK   92  A    between atoms: _236  and  _237
REMARK   93  A    between atoms: _239  and  _241
REMARK   94  A    between atoms: _241  and  _242
REMARK   95  A    between atoms: _241  and  _244
REMARK   96  A    between atoms: _244  and  _245
REMARK   97  A    between atoms: _248  and  _250
REMARK   98  A    between atoms: _250  and  _251
REMARK   99  A    between atoms: _250  and  _253
REMARK  100  A    between atoms: _256  and  _258
REMARK  101  A    between atoms: _258  and  _259
REMARK  102  A    between atoms: _258  and  _261
REMARK  103  A    between atoms: _261  and  _262
REMARK  104  A    between atoms: _262  and  _263
REMARK  105  A    between atoms: _265  and  _267
REMARK  106  A    between atoms: _267  and  _268
REMARK  107  A    between atoms: _267  and  _270
REMARK  108  A    between atoms: _270  and  _271
REMARK  109  A    between atoms: _281  and  _283
REMARK  110  A    between atoms: _283  and  _284
REMARK  111  A    between atoms: _283  and  _286
REMARK  112  A    between atoms: _286  and  _287
REMARK  113  A    between atoms: _290  and  _292
REMARK  114  A    between atoms: _292  and  _293
REMARK  115  A    between atoms: _295  and  _297
REMARK  116  A    between atoms: _297  and  _298
REMARK  117  A    between atoms: _300  and  _302
REMARK  118  A    between atoms: _302  and  _303
REMARK  119  A    between atoms: _302  and  _305
REMARK  120  A    between atoms: _308  and  _310
REMARK  121  A    between atoms: _310  and  _311
REMARK  122  A    between atoms: _310  and  _313
REMARK  123  A    between atoms: _316  and  _318
REMARK  124  A    between atoms: _318  and  _319
REMARK  125  A    between atoms: _322  and  _324
REMARK  126  A    between atoms: _324  and  _325
REMARK  127  A    between atoms: _324  and  _327
REMARK  128  A    between atoms: _330  and  _332
REMARK  129  A    between atoms: _332  and  _333
REMARK  130  A    between atoms: _332  and  _335
REMARK  131  A    between atoms: _335  and  _336
REMARK  132  A    between atoms: _346  and  _348
REMARK  133  A    between atoms: _348  and  _349
REMARK  134  A    between atoms: _348  and  _351
REMARK  135  A    between atoms: _351  and  _352
REMARK  136  A    between atoms: _362  and  _364
REMARK  137  A    between atoms: _364  and  _365
REMARK  138  A    between atoms: _364  and  _367
REMARK  139  A    between atoms: _367  and  _368
REMARK  140  A    between atoms: _373  and  _375
REMARK  141  A    between atoms: _375  and  _376
REMARK  142  A    between atoms: _375  and  _378
REMARK  143  A    between atoms: _378  and  _379
REMARK  144  A    between atoms: _384  and  _385
REMARK  145  A    between atoms: _387  and  _389
REMARK  146  A    between atoms: _389  and  _390
REMARK  147  A    between atoms: _389  and  _392
REMARK  148  A    between atoms: _395  and  _397
REMARK  149  A    between atoms: _397  and  _398
REMARK  150  A    between atoms: _397  and  _400
REMARK  151  A    between atoms: _400  and  _401
REMARK  152  A    between atoms: _404  and  _406
REMARK  153  A    between atoms: _406  and  _407
REMARK  154  A    between atoms: _406  and  _409
REMARK  155  A    between atoms: _409  and  _410
REMARK  156  A    between atoms: _413  and  _415
REMARK  157  A    between atoms: _415  and  _416
REMARK  158  A    between atoms: _415  and  _418
REMARK  159  A    between atoms: _418  and  _419
REMARK  160  A    between atoms: _424  and  _425
REMARK  161  A    between atoms: _427  and  _429
REMARK  162  A    between atoms: _429  and  _430
REMARK  163  A    between atoms: _429  and  _432
REMARK  164  A    between atoms: _432  and  _433
REMARK  165  A    between atoms: _439  and  _441
REMARK  166  A    between atoms: _441  and  _442
REMARK  167  A    between atoms: _441  and  _444
REMARK  168  A    between atoms: _444  and  _445
REMARK  169  A    between atoms: _448  and  _450
REMARK  170  A    between atoms: _450  and  _451
REMARK  171  A    between atoms: _450  and  _453
REMARK  172  A    between atoms: _453  and  _454
REMARK  173  A    between atoms: _460  and  _461
REMARK  174  A    between atoms: _466  and  _468
REMARK  175  A    between atoms: _468  and  _469
REMARK  176  A    between atoms: _468  and  _471
REMARK  177  A    between atoms: _471  and  _472
REMARK  178  A    between atoms: _477  and  _479
REMARK  179  A    between atoms: _479  and  _480
REMARK  180  A    between atoms: _479  and  _482
REMARK  181  A    between atoms: _482  and  _483
REMARK  182  A    between atoms: _493  and  _495
REMARK  183  A    between atoms: _495  and  _496
REMARK  184  A    between atoms: _499  and  _501
REMARK  185  A    between atoms: _501  and  _502
REMARK  186  A    between atoms: _501  and  _504
REMARK  187  A    between atoms: _504  and  _505
REMARK  188  A    between atoms: _508  and  _510
REMARK  189  A    between atoms: _510  and  _511
REMARK  190  A    between atoms: _510  and  _513
REMARK  191  A    between atoms: _513  and  _514
REMARK  192  A    between atoms: _516  and  _518
REMARK  193  A    between atoms: _518  and  _519
REMARK  194  A    between atoms: _518  and  _521
REMARK  195  A    between atoms: _521  and  _522
REMARK  196  A    between atoms: _524  and  _526
REMARK  197  A    between atoms: _526  and  _527
REMARK  198  A    between atoms: _526  and  _529
REMARK  199  A    between atoms: _529  and  _530
REMARK  200  A    between atoms: _530  and  _531
REMARK  201  A    between atoms: _531  and  _532
REMARK  202  A    between atoms: _532  and  _533
REMARK  203  A    between atoms: _537  and  _539
REMARK  204  A    between atoms: _539  and  _540
REMARK  205  A    between atoms: _539  and  _542
REMARK  206  A    between atoms: _542  and  _543
REMARK  207  A    between atoms: _549  and  _551
REMARK  208  A    between atoms: _551  and  _552
REMARK  209  A    between atoms: _551  and  _554
REMARK  210  A    between atoms: _554  and  _555
REMARK  211  A    between atoms: _558  and  _560
REMARK  212  A    between atoms: _560  and  _561
REMARK  213  A    between atoms: _560  and  _563
REMARK  214  A    between atoms: _563  and  _564
REMARK  215  A    between atoms: _567  and  _569
REMARK  216  A    between atoms: _569  and  _570
REMARK  217  A    between atoms: _569  and  _572
REMARK  218  A    between atoms: _572  and  _573
REMARK  219  A    between atoms: _576  and  _578
REMARK  220  A    between atoms: _578  and  _579
REMARK  221  A    between atoms: _578  and  _581
REMARK  222  A    between atoms: _581  and  _582
REMARK  223  A    between atoms: _585  and  _587
REMARK  224  A    between atoms: _587  and  _588
REMARK  225  A    between atoms: _587  and  _590
REMARK  226  A    between atoms: _590  and  _591
REMARK                            x       y       z     vdW  Elec       q    Type
REMARK                         _______ _______ _______ _____ _____    ______ ____
ROOT
ATOM      1  O   HOH     1       7.775  -1.557  22.146  0.00  0.00    +0.000 OA
ENDROOT
TORSDOF 0
REMARK  Name = ../refined-set-2016/2xpk/2xpk_pocket.pdb
REMARK  226 active torsions:
REMARK  status: ('A' for Active; 'I' for Inactive)
REMARK    1  A    between atoms: _1  and  _3
REMARK    2  A    between atoms: _3  and  _4
REMARK    3  A    between atoms: _3  and  _6
REMARK    4  A    between atoms: _9  and  _11
REMARK    5  A    between atoms: _11  and  _12
REMARK    6  A    between atoms: _11  and  _14
REMARK    7  A    between atoms: _14  and  _15
REMARK    8  A    between atoms: _15  and  _16
REMARK    9  A    between atoms: _19  and  _21
REMARK   10  A    between atoms: _21  and  _22
REMARK   11  A    between atoms: _24  and  _26
REMARK   12  A    between atoms: _26  and  _27
REMARK   13  A    between atoms: _26  and  _29
REMARK   14  A    between atoms: _29  and  _30
REMARK   15  A    between atoms: _36  and  _38
REMARK   16  A    between atoms: _38  and  _39
REMARK   17  A    between atoms: _38  and  _41
REMARK   18  A    between atoms: _41  and  _42
REMARK   19  A    between atoms: _47  and  _48
REMARK   20  A    between atoms: _50  and  _52
REMARK   21  A    between atoms: _52  and  _53
REMARK   22  A    between atoms: _55  and  _57
REMARK   23  A    between atoms: _57  and  _58
REMARK   24  A    between atoms: _62  and  _63
REMARK   25  A    between atoms: _68  and  _70
REMARK   26  A    between atoms: _70  and  _71
REMARK   27  A    between atoms: _70  and  _73
REMARK   28  A    between atoms: _73  and  _74
REMARK   29  A    between atoms: _74  and  _75
REMARK   30  A    between atoms: _75  and  _76
REMARK   31  A    between atoms: _76  and  _77
REMARK   32  A    between atoms: _81  and  _83
REMARK   33  A    between atoms: _83  and  _84
REMARK   34  A    between atoms: _83  and  _86
REMARK   35  A    between atoms: _86  and  _87
REMARK   36  A    between atoms: _90  and  _92
REMARK   37  A    between atoms: _92  and  _93
REMARK   38  A    between atoms: _92  and  _95
REMARK   39  A    between atoms: _95  and  _96
REMARK   40  A    between atoms: _101  and  _103
REMARK   41  A    between atoms: _103  and  _104
REMARK   42  A    between atoms: _103  and  _106
REMARK   43  A    between atoms: _106  and  _107
REMARK   44  A    between atoms: _107  and  _108
REMARK   45  A    between atoms: _108  and  _109
REMARK   46  A    between atoms: _118  and  _120
REMARK   47  A    between atoms: _120  and  _121
REMARK   48  A    between atoms: _120  and  _123
REMARK   49  A    between atoms: _123  and  _124
REMARK   50  A    between atoms: _126  and  _128
REMARK   51  A    between atoms: _128  and  _129
REMARK   52  A    between atoms: _128  and  _131
REMARK   53  A    between atoms: _131  and  _132
REMARK   54  A    between atoms: _137  and  _138
REMARK   55  A    between atoms: _140  and  _142
REMARK   56  A    between atoms: _142  and  _143
REMARK   57  A    between atoms: _142  and  _145
REMARK   58  A    between atoms: _145  and  _146
REMARK   59  A    between atoms: _156  and  _158
REMARK   60  A    between atoms: _158  and  _159
REMARK   61  A    between atoms: _158  and  _161
REMARK   62  A    between atoms: _161  and  _162
REMARK   63  A    between atoms: _165  and  _167
REMARK   64  A    between atoms: _167  and  _168
REMARK   65  A    between atoms: _167  and  _170
REMARK   66  A    between atoms: _170  and  _171
REMARK   67  A    between atoms: _174  and  _176
REMARK   68  A    between atoms: _176  and  _177
REMARK   69  A    between atoms: _176  and  _179
REMARK   70  A    between atoms: _179  and  _180
REMARK   71  A    between atoms: _183  and  _185
REMARK   72  A    between atoms: _185  and  _186
REMARK   73  A    between atoms: _185  and  _188
REMARK   74  A    between atoms: _188  and  _189
REMARK   75  A    between atoms: _192  and  _194
REMARK   76  A    between atoms: _194  and  _195
REMARK   77  A    between atoms: _194  and  _197
REMARK   78  A    between atoms: _200  and  _201
REMARK   79  A    between atoms: _206  and  _208
REMARK   80  A    between atoms: _208  and  _209
REMARK   81  A    between atoms: _208  and  _211
REMARK   82  A    between atoms: _211  and  _212
REMARK   83  A    between atoms: _215  and  _217
REMARK   84  A    between atoms: _217  and  _218
REMARK   85  A    between atoms: _217  and  _220
REMARK   86  A    between atoms: _220  and  _221
REMARK   87  A    between atoms: _221  and  _222
REMARK   88  A    between atoms: _225  and  _227
REMARK   89  A    between atoms: _227  and  _228
REMARK   90  A    between atoms: _227  and  _230
REMARK   91  A    between atoms: _230  and  _231
REMARK   92  A    between atoms: _236  and  _237
REMARK   93  A    between atoms: _239  and  _241
REMARK   94  A    between atoms: _241  and  _242
REMARK   95  A    between atoms: _241  and  _244
REMARK   96  A    between atoms: _244  and  _245
REMARK   97  A    between atoms: _248  and  _250
REMARK   98  A    between atoms: _250  and  _251
REMARK   99  A    between atoms: _250  and  _253
REMARK  100  A    between atoms: _256  and  _258
REMARK  101  A    between atoms: _258  and  _259
REMARK  102  A    between atoms: _258  and  _261
REMARK  103  A    between atoms: _261  and  _262
REMARK  104  A    between atoms: _262  and  _263
REMARK  105  A    between atoms: _265  and  _267
REMARK  106  A    between atoms: _267  and  _268
REMARK  107  A    between atoms: _267  and  _270
REMARK  108  A    between atoms: _270  and  _271
REMARK  109  A    between atoms: _281  and  _283
REMARK  110  A    between atoms: _283  and  _284
REMARK  111  A    between atoms: _283  and  _286
REMARK  112  A    between atoms: _286  and  _287
REMARK  113  A    between atoms: _290  and  _292
REMARK  114  A    between atoms: _292  and  _293
REMARK  115  A    between atoms: _295  and  _297
REMARK  116  A    between atoms: _297  and  _298
REMARK  117  A    between atoms: _300  and  _302
REMARK  118  A    between atoms: _302  and  _303
REMARK  119  A    between atoms: _302  and  _305
REMARK  120  A    between atoms: _308  and  _310
REMARK  121  A    between atoms: _310  and  _311
REMARK  122  A    between atoms: _310  and  _313
REMARK  123  A    between atoms: _316  and  _318
REMARK  124  A    between atoms: _318  and  _319
REMARK  125  A    between atoms: _322  and  _324
REMARK  126  A    between atoms: _324  and  _325
REMARK  127  A    between atoms: _324  and  _327
REMARK  128  A    between atoms: _330  and  _332
REMARK  129  A    between atoms: _332  and  _333
REMARK  130  A    between atoms: _332  and  _335
REMARK  131  A    between atoms: _335  and  _336
REMARK  132  A    between atoms: _346  and  _348
REMARK  133  A    between atoms: _348  and  _349
REMARK  134  A    between atoms: _348  and  _351
REMARK  135  A    between atoms: _351  and  _352
REMARK  136  A    between atoms: _362  and  _364
REMARK  137  A    between atoms: _364  and  _365
REMARK  138  A    between atoms: _364  and  _367
REMARK  139  A    between atoms: _367  and  _368
REMARK  140  A    between atoms: _373  and  _375
REMARK  141  A    between atoms: _375  and  _376
REMARK  142  A    between atoms: _375  and  _378
REMARK  143  A    between atoms: _378  and  _379
REMARK  144  A    between atoms: _384  and  _385
REMARK  145  A    between atoms: _387  and  _389
REMARK  146  A    between atoms: _389  and  _390
REMARK  147  A    between atoms: _389  and  _392
REMARK  148  A    between atoms: _395  and  _397
REMARK  149  A    between atoms: _397  and  _398
REMARK  150  A    between atoms: _397  and  _400
REMARK  151  A    between atoms: _400  and  _401
REMARK  152  A    between atoms: _404  and  _406
REMARK  153  A    between atoms: _406  and  _407
REMARK  154  A    between atoms: _406  and  _409
REMARK  155  A    between atoms: _409  and  _410
REMARK  156  A    between atoms: _413  and  _415
REMARK  157  A    between atoms: _415  and  _416
REMARK  158  A    between atoms: _415  and  _418
REMARK  159  A    between atoms: _418  and  _419
REMARK  160  A    between atoms: _424  and  _425
REMARK  161  A    between atoms: _427  and  _429
REMARK  162  A    between atoms: _429  and  _430
REMARK  163  A    between atoms: _429  and  _432
REMARK  164  A    between atoms: _432  and  _433
REMARK  165  A    between atoms: _439  and  _441
REMARK  166  A    between atoms: _441  and  _442
REMARK  167  A    between atoms: _441  and  _444
REMARK  168  A    between atoms: _444  and  _445
REMARK  169  A    between atoms: _448  and  _450
REMARK  170  A    between atoms: _450  and  _451
REMARK  171  A    between atoms: _450  and  _453
REMARK  172  A    between atoms: _453  and  _454
REMARK  173  A    between atoms: _460  and  _461
REMARK  174  A    between atoms: _466  and  _468
REMARK  175  A    between atoms: _468  and  _469
REMARK  176  A    between atoms: _468  and  _471
REMARK  177  A    between atoms: _471  and  _472
REMARK  178  A    between atoms: _477  and  _479
REMARK  179  A    between atoms: _479  and  _480
REMARK  180  A    between atoms: _479  and  _482
REMARK  181  A    between atoms: _482  and  _483
REMARK  182  A    between atoms: _493  and  _495
REMARK  183  A    between atoms: _495  and  _496
REMARK  184  A    between atoms: _499  and  _501
REMARK  185  A    between atoms: _501  and  _502
REMARK  186  A    between atoms: _501  and  _504
REMARK  187  A    between atoms: _504  and  _505
REMARK  188  A    between atoms: _508  and  _510
REMARK  189  A    between atoms: _510  and  _511
REMARK  190  A    between atoms: _510  and  _513
REMARK  191  A    between atoms: _513  and  _514
REMARK  192  A    between atoms: _516  and  _518
REMARK  193  A    between atoms: _518  and  _519
REMARK  194  A    between atoms: _518  and  _521
REMARK  195  A    between atoms: _521  and  _522
REMARK  196  A    between atoms: _524  and  _526
REMARK  197  A    between atoms: _526  and  _527
REMARK  198  A    between atoms: _526  and  _529
REMARK  199  A    between atoms: _529  and  _530
REMARK  200  A    between atoms: _530  and  _531
REMARK  201  A    between atoms: _531  and  _532
REMARK  202  A    between atoms: _532  and  _533
REMARK  203  A    between atoms: _537  and  _539
REMARK  204  A    between atoms: _539  and  _540
REMARK  205  A    between atoms: _539  and  _542
REMARK  206  A    between atoms: _542  and  _543
REMARK  207  A    between atoms: _549  and  _551
REMARK  208  A    between atoms: _551  and  _552
REMARK  209  A    between atoms: _551  and  _554
REMARK  210  A    between atoms: _554  and  _555
REMARK  211  A    between atoms: _558  and  _560
REMARK  212  A    between atoms: _560  and  _561
REMARK  213  A    between atoms: _560  and  _563
REMARK  214  A    between atoms: _563  and  _564
REMARK  215  A    between atoms: _567  and  _569
REMARK  216  A    between atoms: _569  and  _570
REMARK  217  A    between atoms: _569  and  _572
REMARK  218  A    between atoms: _572  and  _573
REMARK  219  A    between atoms: _576  and  _578
REMARK  220  A    between atoms: _578  and  _579
REMARK  221  A    between atoms: _578  and  _581
REMARK  222  A    between atoms: _581  and  _582
REMARK  223  A    between atoms: _585  and  _587
REMARK  224  A    between atoms: _587  and  _588
REMARK  225  A    between atoms: _587  and  _590
REMARK  226  A    between atoms: _590  and  _591
REMARK                            x       y       z     vdW  Elec       q    Type
REMARK                         _______ _______ _______ _____ _____    ______ ____
ROOT
ATOM      1  O   HOH     1       8.747   1.821  23.846  0.00  0.00    +0.000 OA
ENDROOT
TORSDOF 0
REMARK  Name = ../refined-set-2016/2xpk/2xpk_pocket.pdb
REMARK  226 active torsions:
REMARK  status: ('A' for Active; 'I' for Inactive)
REMARK    1  A    between atoms: _1  and  _3
REMARK    2  A    between atoms: _3  and  _4
REMARK    3  A    between atoms: _3  and  _6
REMARK    4  A    between atoms: _9  and  _11
REMARK    5  A    between atoms: _11  and  _12
REMARK    6  A    between atoms: _11  and  _14
REMARK    7  A    between atoms: _14  and  _15
REMARK    8  A    between atoms: _15  and  _16
REMARK    9  A    between atoms: _19  and  _21
REMARK   10  A    between atoms: _21  and  _22
REMARK   11  A    between atoms: _24  and  _26
REMARK   12  A    between atoms: _26  and  _27
REMARK   13  A    between atoms: _26  and  _29
REMARK   14  A    between atoms: _29  and  _30
REMARK   15  A    between atoms: _36  and  _38
REMARK   16  A    between atoms: _38  and  _39
REMARK   17  A    between atoms: _38  and  _41
REMARK   18  A    between atoms: _41  and  _42
REMARK   19  A    between atoms: _47  and  _48
REMARK   20  A    between atoms: _50  and  _52
REMARK   21  A    between atoms: _52  and  _53
REMARK   22  A    between atoms: _55  and  _57
REMARK   23  A    between atoms: _57  and  _58
REMARK   24  A    between atoms: _62  and  _63
REMARK   25  A    between atoms: _68  and  _70
REMARK   26  A    between atoms: _70  and  _71
REMARK   27  A    between atoms: _70  and  _73
REMARK   28  A    between atoms: _73  and  _74
REMARK   29  A    between atoms: _74  and  _75
REMARK   30  A    between atoms: _75  and  _76
REMARK   31  A    between atoms: _76  and  _77
REMARK   32  A    between atoms: _81  and  _83
REMARK   33  A    between atoms: _83  and  _84
REMARK   34  A    between atoms: _83  and  _86
REMARK   35  A    between atoms: _86  and  _87
REMARK   36  A    between atoms: _90  and  _92
REMARK   37  A    between atoms: _92  and  _93
REMARK   38  A    between atoms: _92  and  _95
REMARK   39  A    between atoms: _95  and  _96
REMARK   40  A    between atoms: _101  and  _103
REMARK   41  A    between atoms: _103  and  _104
REMARK   42  A    between atoms: _103  and  _106
REMARK   43  A    between atoms: _106  and  _107
REMARK   44  A    between atoms: _107  and  _108
REMARK   45  A    between atoms: _108  and  _109
REMARK   46  A    between atoms: _118  and  _120
REMARK   47  A    between atoms: _120  and  _121
REMARK   48  A    between atoms: _120  and  _123
REMARK   49  A    between atoms: _123  and  _124
REMARK   50  A    between atoms: _126  and  _128
REMARK   51  A    between atoms: _128  and  _129
REMARK   52  A    between atoms: _128  and  _131
REMARK   53  A    between atoms: _131  and  _132
REMARK   54  A    between atoms: _137  and  _138
REMARK   55  A    between atoms: _140  and  _142
REMARK   56  A    between atoms: _142  and  _143
REMARK   57  A    between atoms: _142  and  _145
REMARK   58  A    between atoms: _145  and  _146
REMARK   59  A    between atoms: _156  and  _158
REMARK   60  A    between atoms: _158  and  _159
REMARK   61  A    between atoms: _158  and  _161
REMARK   62  A    between atoms: _161  and  _162
REMARK   63  A    between atoms: _165  and  _167
REMARK   64  A    between atoms: _167  and  _168
REMARK   65  A    between atoms: _167  and  _170
REMARK   66  A    between atoms: _170  and  _171
REMARK   67  A    between atoms: _174  and  _176
REMARK   68  A    between atoms: _176  and  _177
REMARK   69  A    between atoms: _176  and  _179
REMARK   70  A    between atoms: _179  and  _180
REMARK   71  A    between atoms: _183  and  _185
REMARK   72  A    between atoms: _185  and  _186
REMARK   73  A    between atoms: _185  and  _188
REMARK   74  A    between atoms: _188  and  _189
REMARK   75  A    between atoms: _192  and  _194
REMARK   76  A    between atoms: _194  and  _195
REMARK   77  A    between atoms: _194  and  _197
REMARK   78  A    between atoms: _200  and  _201
REMARK   79  A    between atoms: _206  and  _208
REMARK   80  A    between atoms: _208  and  _209
REMARK   81  A    between atoms: _208  and  _211
REMARK   82  A    between atoms: _211  and  _212
REMARK   83  A    between atoms: _215  and  _217
REMARK   84  A    between atoms: _217  and  _218
REMARK   85  A    between atoms: _217  and  _220
REMARK   86  A    between atoms: _220  and  _221
REMARK   87  A    between atoms: _221  and  _222
REMARK   88  A    between atoms: _225  and  _227
REMARK   89  A    between atoms: _227  and  _228
REMARK   90  A    between atoms: _227  and  _230
REMARK   91  A    between atoms: _230  and  _231
REMARK   92  A    between atoms: _236  and  _237
REMARK   93  A    between atoms: _239  and  _241
REMARK   94  A    between atoms: _241  and  _242
REMARK   95  A    between atoms: _241  and  _244
REMARK   96  A    between atoms: _244  and  _245
REMARK   97  A    between atoms: _248  and  _250
REMARK   98  A    between atoms: _250  and  _251
REMARK   99  A    between atoms: _250  and  _253
REMARK  100  A    between atoms: _256  and  _258
REMARK  101  A    between atoms: _258  and  _259
REMARK  102  A    between atoms: _258  and  _261
REMARK  103  A    between atoms: _261  and  _262
REMARK  104  A    between atoms: _262  and  _263
REMARK  105  A    between atoms: _265  and  _267
REMARK  106  A    between atoms: _267  and  _268
REMARK  107  A    between atoms: _267  and  _270
REMARK  108  A    between atoms: _270  and  _271
REMARK  109  A    between atoms: _281  and  _283
REMARK  110  A    between atoms: _283  and  _284
REMARK  111  A    between atoms: _283  and  _286
REMARK  112  A    between atoms: _286  and  _287
REMARK  113  A    between atoms: _290  and  _292
REMARK  114  A    between atoms: _292  and  _293
REMARK  115  A    between atoms: _295  and  _297
REMARK  116  A    between atoms: _297  and  _298
REMARK  117  A    between atoms: _300  and  _302
REMARK  118  A    between atoms: _302  and  _303
REMARK  119  A    between atoms: _302  and  _305
REMARK  120  A    between atoms: _308  and  _310
REMARK  121  A    between atoms: _310  and  _311
REMARK  122  A    between atoms: _310  and  _313
REMARK  123  A    between atoms: _316  and  _318
REMARK  124  A    between atoms: _318  and  _319
REMARK  125  A    between atoms: _322  and  _324
REMARK  126  A    between atoms: _324  and  _325
REMARK  127  A    between atoms: _324  and  _327
REMARK  128  A    between atoms: _330  and  _332
REMARK  129  A    between atoms: _332  and  _333
REMARK  130  A    between atoms: _332  and  _335
REMARK  131  A    between atoms: _335  and  _336
REMARK  132  A    between atoms: _346  and  _348
REMARK  133  A    between atoms: _348  and  _349
REMARK  134  A    between atoms: _348  and  _351
REMARK  135  A    between atoms: _351  and  _352
REMARK  136  A    between atoms: _362  and  _364
REMARK  137  A    between atoms: _364  and  _365
REMARK  138  A    between atoms: _364  and  _367
REMARK  139  A    between atoms: _367  and  _368
REMARK  140  A    between atoms: _373  and  _375
REMARK  141  A    between atoms: _375  and  _376
REMARK  142  A    between atoms: _375  and  _378
REMARK  143  A    between atoms: _378  and  _379
REMARK  144  A    between atoms: _384  and  _385
REMARK  145  A    between atoms: _387  and  _389
REMARK  146  A    between atoms: _389  and  _390
REMARK  147  A    between atoms: _389  and  _392
REMARK  148  A    between atoms: _395  and  _397
REMARK  149  A    between atoms: _397  and  _398
REMARK  150  A    between atoms: _397  and  _400
REMARK  151  A    between atoms: _400  and  _401
REMARK  152  A    between atoms: _404  and  _406
REMARK  153  A    between atoms: _406  and  _407
REMARK  154  A    between atoms: _406  and  _409
REMARK  155  A    between atoms: _409  and  _410
REMARK  156  A    between atoms: _413  and  _415
REMARK  157  A    between atoms: _415  and  _416
REMARK  158  A    between atoms: _415  and  _418
REMARK  159  A    between atoms: _418  and  _419
REMARK  160  A    between atoms: _424  and  _425
REMARK  161  A    between atoms: _427  and  _429
REMARK  162  A    between atoms: _429  and  _430
REMARK  163  A    between atoms: _429  and  _432
REMARK  164  A    between atoms: _432  and  _433
REMARK  165  A    between atoms: _439  and  _441
REMARK  166  A    between atoms: _441  and  _442
REMARK  167  A    between atoms: _441  and  _444
REMARK  168  A    between atoms: _444  and  _445
REMARK  169  A    between atoms: _448  and  _450
REMARK  170  A    between atoms: _450  and  _451
REMARK  171  A    between atoms: _450  and  _453
REMARK  172  A    between atoms: _453  and  _454
REMARK  173  A    between atoms: _460  and  _461
REMARK  174  A    between atoms: _466  and  _468
REMARK  175  A    between atoms: _468  and  _469
REMARK  176  A    between atoms: _468  and  _471
REMARK  177  A    between atoms: _471  and  _472
REMARK  178  A    between atoms: _477  and  _479
REMARK  179  A    between atoms: _479  and  _480
REMARK  180  A    between atoms: _479  and  _482
REMARK  181  A    between atoms: _482  and  _483
REMARK  182  A    between atoms: _493  and  _495
REMARK  183  A    between atoms: _495  and  _496
REMARK  184  A    between atoms: _499  and  _501
REMARK  185  A    between atoms: _501  and  _502
REMARK  186  A    between atoms: _501  and  _504
REMARK  187  A    between atoms: _504  and  _505
REMARK  188  A    between atoms: _508  and  _510
REMARK  189  A    between atoms: _510  and  _511
REMARK  190  A    between atoms: _510  and  _513
REMARK  191  A    between atoms: _513  and  _514
REMARK  192  A    between atoms: _516  and  _518
REMARK  193  A    between atoms: _518  and  _519
REMARK  194  A    between atoms: _518  and  _521
REMARK  195  A    between atoms: _521  and  _522
REMARK  196  A    between atoms: _524  and  _526
REMARK  197  A    between atoms: _526  and  _527
REMARK  198  A    between atoms: _526  and  _529
REMARK  199  A    between atoms: _529  and  _530
REMARK  200  A    between atoms: _530  and  _531
REMARK  201  A    between atoms: _531  and  _532
REMARK  202  A    between atoms: _532  and  _533
REMARK  203  A    between atoms: _537  and  _539
REMARK  204  A    between atoms: _539  and  _540
REMARK  205  A    between atoms: _539  and  _542
REMARK  206  A    between atoms: _542  and  _543
REMARK  207  A    between atoms: _549  and  _551
REMARK  208  A    between atoms: _551  and  _552
REMARK  209  A    between atoms: _551  and  _554
REMARK  210  A    between atoms: _554  and  _555
REMARK  211  A    between atoms: _558  and  _560
REMARK  212  A    between atoms: _560  and  _561
REMARK  213  A    between atoms: _560  and  _563
REMARK  214  A    between atoms: _563  and  _564
REMARK  215  A    between atoms: _567  and  _569
REMARK  216  A    between atoms: _569  and  _570
REMARK  217  A    between atoms: _569  and  _572
REMARK  218  A    between atoms: _572  and  _573
REMARK  219  A    between atoms: _576  and  _578
REMARK  220  A    between atoms: _578  and  _579
REMARK  221  A    between atoms: _578  and  _581
REMARK  222  A    between atoms: _581  and  _582
REMARK  223  A    between atoms: _585  and  _587
REMARK  224  A    between atoms: _587  and  _588
REMARK  225  A    between atoms: _587  and  _590
REMARK  226  A    between atoms: _590  and  _591
REMARK                            x       y       z     vdW  Elec       q    Type
REMARK                         _______ _______ _______ _____ _____    ______ ____
ROOT
ATOM      1  O   HOH     1      10.530   2.040  13.056  0.00  0.00    +0.000 OA
ENDROOT
TORSDOF 0
REMARK  Name = ../refined-set-2016/2xpk/2xpk_pocket.pdb
REMARK  226 active torsions:
REMARK  status: ('A' for Active; 'I' for Inactive)
REMARK    1  A    between atoms: _1  and  _3
REMARK    2  A    between atoms: _3  and  _4
REMARK    3  A    between atoms: _3  and  _6
REMARK    4  A    between atoms: _9  and  _11
REMARK    5  A    between atoms: _11  and  _12
REMARK    6  A    between atoms: _11  and  _14
REMARK    7  A    between atoms: _14  and  _15
REMARK    8  A    between atoms: _15  and  _16
REMARK    9  A    between atoms: _19  and  _21
REMARK   10  A    between atoms: _21  and  _22
REMARK   11  A    between atoms: _24  and  _26
REMARK   12  A    between atoms: _26  and  _27
REMARK   13  A    between atoms: _26  and  _29
REMARK   14  A    between atoms: _29  and  _30
REMARK   15  A    between atoms: _36  and  _38
REMARK   16  A    between atoms: _38  and  _39
REMARK   17  A    between atoms: _38  and  _41
REMARK   18  A    between atoms: _41  and  _42
REMARK   19  A    between atoms: _47  and  _48
REMARK   20  A    between atoms: _50  and  _52
REMARK   21  A    between atoms: _52  and  _53
REMARK   22  A    between atoms: _55  and  _57
REMARK   23  A    between atoms: _57  and  _58
REMARK   24  A    between atoms: _62  and  _63
REMARK   25  A    between atoms: _68  and  _70
REMARK   26  A    between atoms: _70  and  _71
REMARK   27  A    between atoms: _70  and  _73
REMARK   28  A    between atoms: _73  and  _74
REMARK   29  A    between atoms: _74  and  _75
REMARK   30  A    between atoms: _75  and  _76
REMARK   31  A    between atoms: _76  and  _77
REMARK   32  A    between atoms: _81  and  _83
REMARK   33  A    between atoms: _83  and  _84
REMARK   34  A    between atoms: _83  and  _86
REMARK   35  A    between atoms: _86  and  _87
REMARK   36  A    between atoms: _90  and  _92
REMARK   37  A    between atoms: _92  and  _93
REMARK   38  A    between atoms: _92  and  _95
REMARK   39  A    between atoms: _95  and  _96
REMARK   40  A    between atoms: _101  and  _103
REMARK   41  A    between atoms: _103  and  _104
REMARK   42  A    between atoms: _103  and  _106
REMARK   43  A    between atoms: _106  and  _107
REMARK   44  A    between atoms: _107  and  _108
REMARK   45  A    between atoms: _108  and  _109
REMARK   46  A    between atoms: _118  and  _120
REMARK   47  A    between atoms: _120  and  _121
REMARK   48  A    between atoms: _120  and  _123
REMARK   49  A    between atoms: _123  and  _124
REMARK   50  A    between atoms: _126  and  _128
REMARK   51  A    between atoms: _128  and  _129
REMARK   52  A    between atoms: _128  and  _131
REMARK   53  A    between atoms: _131  and  _132
REMARK   54  A    between atoms: _137  and  _138
REMARK   55  A    between atoms: _140  and  _142
REMARK   56  A    between atoms: _142  and  _143
REMARK   57  A    between atoms: _142  and  _145
REMARK   58  A    between atoms: _145  and  _146
REMARK   59  A    between atoms: _156  and  _158
REMARK   60  A    between atoms: _158  and  _159
REMARK   61  A    between atoms: _158  and  _161
REMARK   62  A    between atoms: _161  and  _162
REMARK   63  A    between atoms: _165  and  _167
REMARK   64  A    between atoms: _167  and  _168
REMARK   65  A    between atoms: _167  and  _170
REMARK   66  A    between atoms: _170  and  _171
REMARK   67  A    between atoms: _174  and  _176
REMARK   68  A    between atoms: _176  and  _177
REMARK   69  A    between atoms: _176  and  _179
REMARK   70  A    between atoms: _179  and  _180
REMARK   71  A    between atoms: _183  and  _185
REMARK   72  A    between atoms: _185  and  _186
REMARK   73  A    between atoms: _185  and  _188
REMARK   74  A    between atoms: _188  and  _189
REMARK   75  A    between atoms: _192  and  _194
REMARK   76  A    between atoms: _194  and  _195
REMARK   77  A    between atoms: _194  and  _197
REMARK   78  A    between atoms: _200  and  _201
REMARK   79  A    between atoms: _206  and  _208
REMARK   80  A    between atoms: _208  and  _209
REMARK   81  A    between atoms: _208  and  _211
REMARK   82  A    between atoms: _211  and  _212
REMARK   83  A    between atoms: _215  and  _217
REMARK   84  A    between atoms: _217  and  _218
REMARK   85  A    between atoms: _217  and  _220
REMARK   86  A    between atoms: _220  and  _221
REMARK   87  A    between atoms: _221  and  _222
REMARK   88  A    between atoms: _225  and  _227
REMARK   89  A    between atoms: _227  and  _228
REMARK   90  A    between atoms: _227  and  _230
REMARK   91  A    between atoms: _230  and  _231
REMARK   92  A    between atoms: _236  and  _237
REMARK   93  A    between atoms: _239  and  _241
REMARK   94  A    between atoms: _241  and  _242
REMARK   95  A    between atoms: _241  and  _244
REMARK   96  A    between atoms: _244  and  _245
REMARK   97  A    between atoms: _248  and  _250
REMARK   98  A    between atoms: _250  and  _251
REMARK   99  A    between atoms: _250  and  _253
REMARK  100  A    between atoms: _256  and  _258
REMARK  101  A    between atoms: _258  and  _259
REMARK  102  A    between atoms: _258  and  _261
REMARK  103  A    between atoms: _261  and  _262
REMARK  104  A    between atoms: _262  and  _263
REMARK  105  A    between atoms: _265  and  _267
REMARK  106  A    between atoms: _267  and  _268
REMARK  107  A    between atoms: _267  and  _270
REMARK  108  A    between atoms: _270  and  _271
REMARK  109  A    between atoms: _281  and  _283
REMARK  110  A    between atoms: _283  and  _284
REMARK  111  A    between atoms: _283  and  _286
REMARK  112  A    between atoms: _286  and  _287
REMARK  113  A    between atoms: _290  and  _292
REMARK  114  A    between atoms: _292  and  _293
REMARK  115  A    between atoms: _295  and  _297
REMARK  116  A    between atoms: _297  and  _298
REMARK  117  A    between atoms: _300  and  _302
REMARK  118  A    between atoms: _302  and  _303
REMARK  119  A    between atoms: _302  and  _305
REMARK  120  A    between atoms: _308  and  _310
REMARK  121  A    between atoms: _310  and  _311
REMARK  122  A    between atoms: _310  and  _313
REMARK  123  A    between atoms: _316  and  _318
REMARK  124  A    between atoms: _318  and  _319
REMARK  125  A    between atoms: _322  and  _324
REMARK  126  A    between atoms: _324  and  _325
REMARK  127  A    between atoms: _324  and  _327
REMARK  128  A    between atoms: _330  and  _332
REMARK  129  A    between atoms: _332  and  _333
REMARK  130  A    between atoms: _332  and  _335
REMARK  131  A    between atoms: _335  and  _336
REMARK  132  A    between atoms: _346  and  _348
REMARK  133  A    between atoms: _348  and  _349
REMARK  134  A    between atoms: _348  and  _351
REMARK  135  A    between atoms: _351  and  _352
REMARK  136  A    between atoms: _362  and  _364
REMARK  137  A    between atoms: _364  and  _365
REMARK  138  A    between atoms: _364  and  _367
REMARK  139  A    between atoms: _367  and  _368
REMARK  140  A    between atoms: _373  and  _375
REMARK  141  A    between atoms: _375  and  _376
REMARK  142  A    between atoms: _375  and  _378
REMARK  143  A    between atoms: _378  and  _379
REMARK  144  A    between atoms: _384  and  _385
REMARK  145  A    between atoms: _387  and  _389
REMARK  146  A    between atoms: _389  and  _390
REMARK  147  A    between atoms: _389  and  _392
REMARK  148  A    between atoms: _395  and  _397
REMARK  149  A    between atoms: _397  and  _398
REMARK  150  A    between atoms: _397  and  _400
REMARK  151  A    between atoms: _400  and  _401
REMARK  152  A    between atoms: _404  and  _406
REMARK  153  A    between atoms: _406  and  _407
REMARK  154  A    between atoms: _406  and  _409
REMARK  155  A    between atoms: _409  and  _410
REMARK  156  A    between atoms: _413  and  _415
REMARK  157  A    between atoms: _415  and  _416
REMARK  158  A    between atoms: _415  and  _418
REMARK  159  A    between atoms: _418  and  _419
REMARK  160  A    between atoms: _424  and  _425
REMARK  161  A    between atoms: _427  and  _429
REMARK  162  A    between atoms: _429  and  _430
REMARK  163  A    between atoms: _429  and  _432
REMARK  164  A    between atoms: _432  and  _433
REMARK  165  A    between atoms: _439  and  _441
REMARK  166  A    between atoms: _441  and  _442
REMARK  167  A    between atoms: _441  and  _444
REMARK  168  A    between atoms: _444  and  _445
REMARK  169  A    between atoms: _448  and  _450
REMARK  170  A    between atoms: _450  and  _451
REMARK  171  A    between atoms: _450  and  _453
REMARK  172  A    between atoms: _453  and  _454
REMARK  173  A    between atoms: _460  and  _461
REMARK  174  A    between atoms: _466  and  _468
REMARK  175  A    between atoms: _468  and  _469
REMARK  176  A    between atoms: _468  and  _471
REMARK  177  A    between atoms: _471  and  _472
REMARK  178  A    between atoms: _477  and  _479
REMARK  179  A    between atoms: _479  and  _480
REMARK  180  A    between atoms: _479  and  _482
REMARK  181  A    between atoms: _482  and  _483
REMARK  182  A    between atoms: _493  and  _495
REMARK  183  A    between atoms: _495  and  _496
REMARK  184  A    between atoms: _499  and  _501
REMARK  185  A    between atoms: _501  and  _502
REMARK  186  A    between atoms: _501  and  _504
REMARK  187  A    between atoms: _504  and  _505
REMARK  188  A    between atoms: _508  and  _510
REMARK  189  A    between atoms: _510  and  _511
REMARK  190  A    between atoms: _510  and  _513
REMARK  191  A    between atoms: _513  and  _514
REMARK  192  A    between atoms: _516  and  _518
REMARK  193  A    between atoms: _518  and  _519
REMARK  194  A    between atoms: _518  and  _521
REMARK  195  A    between atoms: _521  and  _522
REMARK  196  A    between atoms: _524  and  _526
REMARK  197  A    between atoms: _526  and  _527
REMARK  198  A    between atoms: _526  and  _529
REMARK  199  A    between atoms: _529  and  _530
REMARK  200  A    between atoms: _530  and  _531
REMARK  201  A    between atoms: _531  and  _532
REMARK  202  A    between atoms: _532  and  _533
REMARK  203  A    between atoms: _537  and  _539
REMARK  204  A    between atoms: _539  and  _540
REMARK  205  A    between atoms: _539  and  _542
REMARK  206  A    between atoms: _542  and  _543
REMARK  207  A    between atoms: _549  and  _551
REMARK  208  A    between atoms: _551  and  _552
REMARK  209  A    between atoms: _551  and  _554
REMARK  210  A    between atoms: _554  and  _555
REMARK  211  A    between atoms: _558  and  _560
REMARK  212  A    between atoms: _560  and  _561
REMARK  213  A    between atoms: _560  and  _563
REMARK  214  A    between atoms: _563  and  _564
REMARK  215  A    between atoms: _567  and  _569
REMARK  216  A    between atoms: _569  and  _570
REMARK  217  A    between atoms: _569  and  _572
REMARK  218  A    between atoms: _572  and  _573
REMARK  219  A    between atoms: _576  and  _578
REMARK  220  A    between atoms: _578  and  _579
REMARK  221  A    between atoms: _578  and  _581
REMARK  222  A    between atoms: _581  and  _582
REMARK  223  A    between atoms: _585  and  _587
REMARK  224  A    between atoms: _587  and  _588
REMARK  225  A    between atoms: _587  and  _590
REMARK  226  A    between atoms: _590  and  _591
REMARK                            x       y       z     vdW  Elec       q    Type
REMARK                         _______ _______ _______ _____ _____    ______ ____
ROOT
ATOM      1  O   HOH     1      10.758   4.457  21.510  0.00  0.00    +0.000 OA
ENDROOT
TORSDOF 0
REMARK  Name = ../refined-set-2016/2xpk/2xpk_pocket.pdb
REMARK  226 active torsions:
REMARK  status: ('A' for Active; 'I' for Inactive)
REMARK    1  A    between atoms: _1  and  _3
REMARK    2  A    between atoms: _3  and  _4
REMARK    3  A    between atoms: _3  and  _6
REMARK    4  A    between atoms: _9  and  _11
REMARK    5  A    between atoms: _11  and  _12
REMARK    6  A    between atoms: _11  and  _14
REMARK    7  A    between atoms: _14  and  _15
REMARK    8  A    between atoms: _15  and  _16
REMARK    9  A    between atoms: _19  and  _21
REMARK   10  A    between atoms: _21  and  _22
REMARK   11  A    between atoms: _24  and  _26
REMARK   12  A    between atoms: _26  and  _27
REMARK   13  A    between atoms: _26  and  _29
REMARK   14  A    between atoms: _29  and  _30
REMARK   15  A    between atoms: _36  and  _38
REMARK   16  A    between atoms: _38  and  _39
REMARK   17  A    between atoms: _38  and  _41
REMARK   18  A    between atoms: _41  and  _42
REMARK   19  A    between atoms: _47  and  _48
REMARK   20  A    between atoms: _50  and  _52
REMARK   21  A    between atoms: _52  and  _53
REMARK   22  A    between atoms: _55  and  _57
REMARK   23  A    between atoms: _57  and  _58
REMARK   24  A    between atoms: _62  and  _63
REMARK   25  A    between atoms: _68  and  _70
REMARK   26  A    between atoms: _70  and  _71
REMARK   27  A    between atoms: _70  and  _73
REMARK   28  A    between atoms: _73  and  _74
REMARK   29  A    between atoms: _74  and  _75
REMARK   30  A    between atoms: _75  and  _76
REMARK   31  A    between atoms: _76  and  _77
REMARK   32  A    between atoms: _81  and  _83
REMARK   33  A    between atoms: _83  and  _84
REMARK   34  A    between atoms: _83  and  _86
REMARK   35  A    between atoms: _86  and  _87
REMARK   36  A    between atoms: _90  and  _92
REMARK   37  A    between atoms: _92  and  _93
REMARK   38  A    between atoms: _92  and  _95
REMARK   39  A    between atoms: _95  and  _96
REMARK   40  A    between atoms: _101  and  _103
REMARK   41  A    between atoms: _103  and  _104
REMARK   42  A    between atoms: _103  and  _106
REMARK   43  A    between atoms: _106  and  _107
REMARK   44  A    between atoms: _107  and  _108
REMARK   45  A    between atoms: _108  and  _109
REMARK   46  A    between atoms: _118  and  _120
REMARK   47  A    between atoms: _120  and  _121
REMARK   48  A    between atoms: _120  and  _123
REMARK   49  A    between atoms: _123  and  _124
REMARK   50  A    between atoms: _126  and  _128
REMARK   51  A    between atoms: _128  and  _129
REMARK   52  A    between atoms: _128  and  _131
REMARK   53  A    between atoms: _131  and  _132
REMARK   54  A    between atoms: _137  and  _138
REMARK   55  A    between atoms: _140  and  _142
REMARK   56  A    between atoms: _142  and  _143
REMARK   57  A    between atoms: _142  and  _145
REMARK   58  A    between atoms: _145  and  _146
REMARK   59  A    between atoms: _156  and  _158
REMARK   60  A    between atoms: _158  and  _159
REMARK   61  A    between atoms: _158  and  _161
REMARK   62  A    between atoms: _161  and  _162
REMARK   63  A    between atoms: _165  and  _167
REMARK   64  A    between atoms: _167  and  _168
REMARK   65  A    between atoms: _167  and  _170
REMARK   66  A    between atoms: _170  and  _171
REMARK   67  A    between atoms: _174  and  _176
REMARK   68  A    between atoms: _176  and  _177
REMARK   69  A    between atoms: _176  and  _179
REMARK   70  A    between atoms: _179  and  _180
REMARK   71  A    between atoms: _183  and  _185
REMARK   72  A    between atoms: _185  and  _186
REMARK   73  A    between atoms: _185  and  _188
REMARK   74  A    between atoms: _188  and  _189
REMARK   75  A    between atoms: _192  and  _194
REMARK   76  A    between atoms: _194  and  _195
REMARK   77  A    between atoms: _194  and  _197
REMARK   78  A    between atoms: _200  and  _201
REMARK   79  A    between atoms: _206  and  _208
REMARK   80  A    between atoms: _208  and  _209
REMARK   81  A    between atoms: _208  and  _211
REMARK   82  A    between atoms: _211  and  _212
REMARK   83  A    between atoms: _215  and  _217
REMARK   84  A    between atoms: _217  and  _218
REMARK   85  A    between atoms: _217  and  _220
REMARK   86  A    between atoms: _220  and  _221
REMARK   87  A    between atoms: _221  and  _222
REMARK   88  A    between atoms: _225  and  _227
REMARK   89  A    between atoms: _227  and  _228
REMARK   90  A    between atoms: _227  and  _230
REMARK   91  A    between atoms: _230  and  _231
REMARK   92  A    between atoms: _236  and  _237
REMARK   93  A    between atoms: _239  and  _241
REMARK   94  A    between atoms: _241  and  _242
REMARK   95  A    between atoms: _241  and  _244
REMARK   96  A    between atoms: _244  and  _245
REMARK   97  A    between atoms: _248  and  _250
REMARK   98  A    between atoms: _250  and  _251
REMARK   99  A    between atoms: _250  and  _253
REMARK  100  A    between atoms: _256  and  _258
REMARK  101  A    between atoms: _258  and  _259
REMARK  102  A    between atoms: _258  and  _261
REMARK  103  A    between atoms: _261  and  _262
REMARK  104  A    between atoms: _262  and  _263
REMARK  105  A    between atoms: _265  and  _267
REMARK  106  A    between atoms: _267  and  _268
REMARK  107  A    between atoms: _267  and  _270
REMARK  108  A    between atoms: _270  and  _271
REMARK  109  A    between atoms: _281  and  _283
REMARK  110  A    between atoms: _283  and  _284
REMARK  111  A    between atoms: _283  and  _286
REMARK  112  A    between atoms: _286  and  _287
REMARK  113  A    between atoms: _290  and  _292
REMARK  114  A    between atoms: _292  and  _293
REMARK  115  A    between atoms: _295  and  _297
REMARK  116  A    between atoms: _297  and  _298
REMARK  117  A    between atoms: _300  and  _302
REMARK  118  A    between atoms: _302  and  _303
REMARK  119  A    between atoms: _302  and  _305
REMARK  120  A    between atoms: _308  and  _310
REMARK  121  A    between atoms: _310  and  _311
REMARK  122  A    between atoms: _310  and  _313
REMARK  123  A    between atoms: _316  and  _318
REMARK  124  A    between atoms: _318  and  _319
REMARK  125  A    between atoms: _322  and  _324
REMARK  126  A    between atoms: _324  and  _325
REMARK  127  A    between atoms: _324  and  _327
REMARK  128  A    between atoms: _330  and  _332
REMARK  129  A    between atoms: _332  and  _333
REMARK  130  A    between atoms: _332  and  _335
REMARK  131  A    between atoms: _335  and  _336
REMARK  132  A    between atoms: _346  and  _348
REMARK  133  A    between atoms: _348  and  _349
REMARK  134  A    between atoms: _348  and  _351
REMARK  135  A    between atoms: _351  and  _352
REMARK  136  A    between atoms: _362  and  _364
REMARK  137  A    between atoms: _364  and  _365
REMARK  138  A    between atoms: _364  and  _367
REMARK  139  A    between atoms: _367  and  _368
REMARK  140  A    between atoms: _373  and  _375
REMARK  141  A    between atoms: _375  and  _376
REMARK  142  A    between atoms: _375  and  _378
REMARK  143  A    between atoms: _378  and  _379
REMARK  144  A    between atoms: _384  and  _385
REMARK  145  A    between atoms: _387  and  _389
REMARK  146  A    between atoms: _389  and  _390
REMARK  147  A    between atoms: _389  and  _392
REMARK  148  A    between atoms: _395  and  _397
REMARK  149  A    between atoms: _397  and  _398
REMARK  150  A    between atoms: _397  and  _400
REMARK  151  A    between atoms: _400  and  _401
REMARK  152  A    between atoms: _404  and  _406
REMARK  153  A    between atoms: _406  and  _407
REMARK  154  A    between atoms: _406  and  _409
REMARK  155  A    between atoms: _409  and  _410
REMARK  156  A    between atoms: _413  and  _415
REMARK  157  A    between atoms: _415  and  _416
REMARK  158  A    between atoms: _415  and  _418
REMARK  159  A    between atoms: _418  and  _419
REMARK  160  A    between atoms: _424  and  _425
REMARK  161  A    between atoms: _427  and  _429
REMARK  162  A    between atoms: _429  and  _430
REMARK  163  A    between atoms: _429  and  _432
REMARK  164  A    between atoms: _432  and  _433
REMARK  165  A    between atoms: _439  and  _441
REMARK  166  A    between atoms: _441  and  _442
REMARK  167  A    between atoms: _441  and  _444
REMARK  168  A    between atoms: _444  and  _445
REMARK  169  A    between atoms: _448  and  _450
REMARK  170  A    between atoms: _450  and  _451
REMARK  171  A    between atoms: _450  and  _453
REMARK  172  A    between atoms: _453  and  _454
REMARK  173  A    between atoms: _460  and  _461
REMARK  174  A    between atoms: _466  and  _468
REMARK  175  A    between atoms: _468  and  _469
REMARK  176  A    between atoms: _468  and  _471
REMARK  177  A    between atoms: _471  and  _472
REMARK  178  A    between atoms: _477  and  _479
REMARK  179  A    between atoms: _479  and  _480
REMARK  180  A    between atoms: _479  and  _482
REMARK  181  A    between atoms: _482  and  _483
REMARK  182  A    between atoms: _493  and  _495
REMARK  183  A    between atoms: _495  and  _496
REMARK  184  A    between atoms: _499  and  _501
REMARK  185  A    between atoms: _501  and  _502
REMARK  186  A    between atoms: _501  and  _504
REMARK  187  A    between atoms: _504  and  _505
REMARK  188  A    between atoms: _508  and  _510
REMARK  189  A    between atoms: _510  and  _511
REMARK  190  A    between atoms: _510  and  _513
REMARK  191  A    between atoms: _513  and  _514
REMARK  192  A    between atoms: _516  and  _518
REMARK  193  A    between atoms: _518  and  _519
REMARK  194  A    between atoms: _518  and  _521
REMARK  195  A    between atoms: _521  and  _522
REMARK  196  A    between atoms: _524  and  _526
REMARK  197  A    between atoms: _526  and  _527
REMARK  198  A    between atoms: _526  and  _529
REMARK  199  A    between atoms: _529  and  _530
REMARK  200  A    between atoms: _530  and  _531
REMARK  201  A    between atoms: _531  and  _532
REMARK  202  A    between atoms: _532  and  _533
REMARK  203  A    between atoms: _537  and  _539
REMARK  204  A    between atoms: _539  and  _540
REMARK  205  A    between atoms: _539  and  _542
REMARK  206  A    between atoms: _542  and  _543
REMARK  207  A    between atoms: _549  and  _551
REMARK  208  A    between atoms: _551  and  _552
REMARK  209  A    between atoms: _551  and  _554
REMARK  210  A    between atoms: _554  and  _555
REMARK  211  A    between atoms: _558  and  _560
REMARK  212  A    between atoms: _560  and  _561
REMARK  213  A    between atoms: _560  and  _563
REMARK  214  A    between atoms: _563  and  _564
REMARK  215  A    between atoms: _567  and  _569
REMARK  216  A    between atoms: _569  and  _570
REMARK  217  A    between atoms: _569  and  _572
REMARK  218  A    between atoms: _572  and  _573
REMARK  219  A    between atoms: _576  and  _578
REMARK  220  A    between atoms: _578  and  _579
REMARK  221  A    between atoms: _578  and  _581
REMARK  222  A    between atoms: _581  and  _582
REMARK  223  A    between atoms: _585  and  _587
REMARK  224  A    between atoms: _587  and  _588
REMARK  225  A    between atoms: _587  and  _590
REMARK  226  A    between atoms: _590  and  _591
REMARK                            x       y       z     vdW  Elec       q    Type
REMARK                         _______ _______ _______ _____ _____    ______ ____
ROOT
ATOM      1  O   HOH     1       7.463   8.290  10.596  0.00  0.00    +0.000 OA
ENDROOT
TORSDOF 0
REMARK  Name = ../refined-set-2016/2xpk/2xpk_pocket.pdb
REMARK  226 active torsions:
REMARK  status: ('A' for Active; 'I' for Inactive)
REMARK    1  A    between atoms: _1  and  _3
REMARK    2  A    between atoms: _3  and  _4
REMARK    3  A    between atoms: _3  and  _6
REMARK    4  A    between atoms: _9  and  _11
REMARK    5  A    between atoms: _11  and  _12
REMARK    6  A    between atoms: _11  and  _14
REMARK    7  A    between atoms: _14  and  _15
REMARK    8  A    between atoms: _15  and  _16
REMARK    9  A    between atoms: _19  and  _21
REMARK   10  A    between atoms: _21  and  _22
REMARK   11  A    between atoms: _24  and  _26
REMARK   12  A    between atoms: _26  and  _27
REMARK   13  A    between atoms: _26  and  _29
REMARK   14  A    between atoms: _29  and  _30
REMARK   15  A    between atoms: _36  and  _38
REMARK   16  A    between atoms: _38  and  _39
REMARK   17  A    between atoms: _38  and  _41
REMARK   18  A    between atoms: _41  and  _42
REMARK   19  A    between atoms: _47  and  _48
REMARK   20  A    between atoms: _50  and  _52
REMARK   21  A    between atoms: _52  and  _53
REMARK   22  A    between atoms: _55  and  _57
REMARK   23  A    between atoms: _57  and  _58
REMARK   24  A    between atoms: _62  and  _63
REMARK   25  A    between atoms: _68  and  _70
REMARK   26  A    between atoms: _70  and  _71
REMARK   27  A    between atoms: _70  and  _73
REMARK   28  A    between atoms: _73  and  _74
REMARK   29  A    between atoms: _74  and  _75
REMARK   30  A    between atoms: _75  and  _76
REMARK   31  A    between atoms: _76  and  _77
REMARK   32  A    between atoms: _81  and  _83
REMARK   33  A    between atoms: _83  and  _84
REMARK   34  A    between atoms: _83  and  _86
REMARK   35  A    between atoms: _86  and  _87
REMARK   36  A    between atoms: _90  and  _92
REMARK   37  A    between atoms: _92  and  _93
REMARK   38  A    between atoms: _92  and  _95
REMARK   39  A    between atoms: _95  and  _96
REMARK   40  A    between atoms: _101  and  _103
REMARK   41  A    between atoms: _103  and  _104
REMARK   42  A    between atoms: _103  and  _106
REMARK   43  A    between atoms: _106  and  _107
REMARK   44  A    between atoms: _107  and  _108
REMARK   45  A    between atoms: _108  and  _109
REMARK   46  A    between atoms: _118  and  _120
REMARK   47  A    between atoms: _120  and  _121
REMARK   48  A    between atoms: _120  and  _123
REMARK   49  A    between atoms: _123  and  _124
REMARK   50  A    between atoms: _126  and  _128
REMARK   51  A    between atoms: _128  and  _129
REMARK   52  A    between atoms: _128  and  _131
REMARK   53  A    between atoms: _131  and  _132
REMARK   54  A    between atoms: _137  and  _138
REMARK   55  A    between atoms: _140  and  _142
REMARK   56  A    between atoms: _142  and  _143
REMARK   57  A    between atoms: _142  and  _145
REMARK   58  A    between atoms: _145  and  _146
REMARK   59  A    between atoms: _156  and  _158
REMARK   60  A    between atoms: _158  and  _159
REMARK   61  A    between atoms: _158  and  _161
REMARK   62  A    between atoms: _161  and  _162
REMARK   63  A    between atoms: _165  and  _167
REMARK   64  A    between atoms: _167  and  _168
REMARK   65  A    between atoms: _167  and  _170
REMARK   66  A    between atoms: _170  and  _171
REMARK   67  A    between atoms: _174  and  _176
REMARK   68  A    between atoms: _176  and  _177
REMARK   69  A    between atoms: _176  and  _179
REMARK   70  A    between atoms: _179  and  _180
REMARK   71  A    between atoms: _183  and  _185
REMARK   72  A    between atoms: _185  and  _186
REMARK   73  A    between atoms: _185  and  _188
REMARK   74  A    between atoms: _188  and  _189
REMARK   75  A    between atoms: _192  and  _194
REMARK   76  A    between atoms: _194  and  _195
REMARK   77  A    between atoms: _194  and  _197
REMARK   78  A    between atoms: _200  and  _201
REMARK   79  A    between atoms: _206  and  _208
REMARK   80  A    between atoms: _208  and  _209
REMARK   81  A    between atoms: _208  and  _211
REMARK   82  A    between atoms: _211  and  _212
REMARK   83  A    between atoms: _215  and  _217
REMARK   84  A    between atoms: _217  and  _218
REMARK   85  A    between atoms: _217  and  _220
REMARK   86  A    between atoms: _220  and  _221
REMARK   87  A    between atoms: _221  and  _222
REMARK   88  A    between atoms: _225  and  _227
REMARK   89  A    between atoms: _227  and  _228
REMARK   90  A    between atoms: _227  and  _230
REMARK   91  A    between atoms: _230  and  _231
REMARK   92  A    between atoms: _236  and  _237
REMARK   93  A    between atoms: _239  and  _241
REMARK   94  A    between atoms: _241  and  _242
REMARK   95  A    between atoms: _241  and  _244
REMARK   96  A    between atoms: _244  and  _245
REMARK   97  A    between atoms: _248  and  _250
REMARK   98  A    between atoms: _250  and  _251
REMARK   99  A    between atoms: _250  and  _253
REMARK  100  A    between atoms: _256  and  _258
REMARK  101  A    between atoms: _258  and  _259
REMARK  102  A    between atoms: _258  and  _261
REMARK  103  A    between atoms: _261  and  _262
REMARK  104  A    between atoms: _262  and  _263
REMARK  105  A    between atoms: _265  and  _267
REMARK  106  A    between atoms: _267  and  _268
REMARK  107  A    between atoms: _267  and  _270
REMARK  108  A    between atoms: _270  and  _271
REMARK  109  A    between atoms: _281  and  _283
REMARK  110  A    between atoms: _283  and  _284
REMARK  111  A    between atoms: _283  and  _286
REMARK  112  A    between atoms: _286  and  _287
REMARK  113  A    between atoms: _290  and  _292
REMARK  114  A    between atoms: _292  and  _293
REMARK  115  A    between atoms: _295  and  _297
REMARK  116  A    between atoms: _297  and  _298
REMARK  117  A    between atoms: _300  and  _302
REMARK  118  A    between atoms: _302  and  _303
REMARK  119  A    between atoms: _302  and  _305
REMARK  120  A    between atoms: _308  and  _310
REMARK  121  A    between atoms: _310  and  _311
REMARK  122  A    between atoms: _310  and  _313
REMARK  123  A    between atoms: _316  and  _318
REMARK  124  A    between atoms: _318  and  _319
REMARK  125  A    between atoms: _322  and  _324
REMARK  126  A    between atoms: _324  and  _325
REMARK  127  A    between atoms: _324  and  _327
REMARK  128  A    between atoms: _330  and  _332
REMARK  129  A    between atoms: _332  and  _333
REMARK  130  A    between atoms: _332  and  _335
REMARK  131  A    between atoms: _335  and  _336
REMARK  132  A    between atoms: _346  and  _348
REMARK  133  A    between atoms: _348  and  _349
REMARK  134  A    between atoms: _348  and  _351
REMARK  135  A    between atoms: _351  and  _352
REMARK  136  A    between atoms: _362  and  _364
REMARK  137  A    between atoms: _364  and  _365
REMARK  138  A    between atoms: _364  and  _367
REMARK  139  A    between atoms: _367  and  _368
REMARK  140  A    between atoms: _373  and  _375
REMARK  141  A    between atoms: _375  and  _376
REMARK  142  A    between atoms: _375  and  _378
REMARK  143  A    between atoms: _378  and  _379
REMARK  144  A    between atoms: _384  and  _385
REMARK  145  A    between atoms: _387  and  _389
REMARK  146  A    between atoms: _389  and  _390
REMARK  147  A    between atoms: _389  and  _392
REMARK  148  A    between atoms: _395  and  _397
REMARK  149  A    between atoms: _397  and  _398
REMARK  150  A    between atoms: _397  and  _400
REMARK  151  A    between atoms: _400  and  _401
REMARK  152  A    between atoms: _404  and  _406
REMARK  153  A    between atoms: _406  and  _407
REMARK  154  A    between atoms: _406  and  _409
REMARK  155  A    between atoms: _409  and  _410
REMARK  156  A    between atoms: _413  and  _415
REMARK  157  A    between atoms: _415  and  _416
REMARK  158  A    between atoms: _415  and  _418
REMARK  159  A    between atoms: _418  and  _419
REMARK  160  A    between atoms: _424  and  _425
REMARK  161  A    between atoms: _427  and  _429
REMARK  162  A    between atoms: _429  and  _430
REMARK  163  A    between atoms: _429  and  _432
REMARK  164  A    between atoms: _432  and  _433
REMARK  165  A    between atoms: _439  and  _441
REMARK  166  A    between atoms: _441  and  _442
REMARK  167  A    between atoms: _441  and  _444
REMARK  168  A    between atoms: _444  and  _445
REMARK  169  A    between atoms: _448  and  _450
REMARK  170  A    between atoms: _450  and  _451
REMARK  171  A    between atoms: _450  and  _453
REMARK  172  A    between atoms: _453  and  _454
REMARK  173  A    between atoms: _460  and  _461
REMARK  174  A    between atoms: _466  and  _468
REMARK  175  A    between atoms: _468  and  _469
REMARK  176  A    between atoms: _468  and  _471
REMARK  177  A    between atoms: _471  and  _472
REMARK  178  A    between atoms: _477  and  _479
REMARK  179  A    between atoms: _479  and  _480
REMARK  180  A    between atoms: _479  and  _482
REMARK  181  A    between atoms: _482  and  _483
REMARK  182  A    between atoms: _493  and  _495
REMARK  183  A    between atoms: _495  and  _496
REMARK  184  A    between atoms: _499  and  _501
REMARK  185  A    between atoms: _501  and  _502
REMARK  186  A    between atoms: _501  and  _504
REMARK  187  A    between atoms: _504  and  _505
REMARK  188  A    between atoms: _508  and  _510
REMARK  189  A    between atoms: _510  and  _511
REMARK  190  A    between atoms: _510  and  _513
REMARK  191  A    between atoms: _513  and  _514
REMARK  192  A    between atoms: _516  and  _518
REMARK  193  A    between atoms: _518  and  _519
REMARK  194  A    between atoms: _518  and  _521
REMARK  195  A    between atoms: _521  and  _522
REMARK  196  A    between atoms: _524  and  _526
REMARK  197  A    between atoms: _526  and  _527
REMARK  198  A    between atoms: _526  and  _529
REMARK  199  A    between atoms: _529  and  _530
REMARK  200  A    between atoms: _530  and  _531
REMARK  201  A    between atoms: _531  and  _532
REMARK  202  A    between atoms: _532  and  _533
REMARK  203  A    between atoms: _537  and  _539
REMARK  204  A    between atoms: _539  and  _540
REMARK  205  A    between atoms: _539  and  _542
REMARK  206  A    between atoms: _542  and  _543
REMARK  207  A    between atoms: _549  and  _551
REMARK  208  A    between atoms: _551  and  _552
REMARK  209  A    between atoms: _551  and  _554
REMARK  210  A    between atoms: _554  and  _555
REMARK  211  A    between atoms: _558  and  _560
REMARK  212  A    between atoms: _560  and  _561
REMARK  213  A    between atoms: _560  and  _563
REMARK  214  A    between atoms: _563  and  _564
REMARK  215  A    between atoms: _567  and  _569
REMARK  216  A    between atoms: _569  and  _570
REMARK  217  A    between atoms: _569  and  _572
REMARK  218  A    between atoms: _572  and  _573
REMARK  219  A    between atoms: _576  and  _578
REMARK  220  A    between atoms: _578  and  _579
REMARK  221  A    between atoms: _578  and  _581
REMARK  222  A    between atoms: _581  and  _582
REMARK  223  A    between atoms: _585  and  _587
REMARK  224  A    between atoms: _587  and  _588
REMARK  225  A    between atoms: _587  and  _590
REMARK  226  A    between atoms: _590  and  _591
REMARK                            x       y       z     vdW  Elec       q    Type
REMARK                         _______ _______ _______ _____ _____    ______ ____
ROOT
ATOM      1  O   HOH     1      -0.439   9.029   8.728  0.00  0.00    +0.000 OA
ENDROOT
TORSDOF 0
REMARK  Name = ../refined-set-2016/2xpk/2xpk_pocket.pdb
REMARK  226 active torsions:
REMARK  status: ('A' for Active; 'I' for Inactive)
REMARK    1  A    between atoms: _1  and  _3
REMARK    2  A    between atoms: _3  and  _4
REMARK    3  A    between atoms: _3  and  _6
REMARK    4  A    between atoms: _9  and  _11
REMARK    5  A    between atoms: _11  and  _12
REMARK    6  A    between atoms: _11  and  _14
REMARK    7  A    between atoms: _14  and  _15
REMARK    8  A    between atoms: _15  and  _16
REMARK    9  A    between atoms: _19  and  _21
REMARK   10  A    between atoms: _21  and  _22
REMARK   11  A    between atoms: _24  and  _26
REMARK   12  A    between atoms: _26  and  _27
REMARK   13  A    between atoms: _26  and  _29
REMARK   14  A    between atoms: _29  and  _30
REMARK   15  A    between atoms: _36  and  _38
REMARK   16  A    between atoms: _38  and  _39
REMARK   17  A    between atoms: _38  and  _41
REMARK   18  A    between atoms: _41  and  _42
REMARK   19  A    between atoms: _47  and  _48
REMARK   20  A    between atoms: _50  and  _52
REMARK   21  A    between atoms: _52  and  _53
REMARK   22  A    between atoms: _55  and  _57
REMARK   23  A    between atoms: _57  and  _58
REMARK   24  A    between atoms: _62  and  _63
REMARK   25  A    between atoms: _68  and  _70
REMARK   26  A    between atoms: _70  and  _71
REMARK   27  A    between atoms: _70  and  _73
REMARK   28  A    between atoms: _73  and  _74
REMARK   29  A    between atoms: _74  and  _75
REMARK   30  A    between atoms: _75  and  _76
REMARK   31  A    between atoms: _76  and  _77
REMARK   32  A    between atoms: _81  and  _83
REMARK   33  A    between atoms: _83  and  _84
REMARK   34  A    between atoms: _83  and  _86
REMARK   35  A    between atoms: _86  and  _87
REMARK   36  A    between atoms: _90  and  _92
REMARK   37  A    between atoms: _92  and  _93
REMARK   38  A    between atoms: _92  and  _95
REMARK   39  A    between atoms: _95  and  _96
REMARK   40  A    between atoms: _101  and  _103
REMARK   41  A    between atoms: _103  and  _104
REMARK   42  A    between atoms: _103  and  _106
REMARK   43  A    between atoms: _106  and  _107
REMARK   44  A    between atoms: _107  and  _108
REMARK   45  A    between atoms: _108  and  _109
REMARK   46  A    between atoms: _118  and  _120
REMARK   47  A    between atoms: _120  and  _121
REMARK   48  A    between atoms: _120  and  _123
REMARK   49  A    between atoms: _123  and  _124
REMARK   50  A    between atoms: _126  and  _128
REMARK   51  A    between atoms: _128  and  _129
REMARK   52  A    between atoms: _128  and  _131
REMARK   53  A    between atoms: _131  and  _132
REMARK   54  A    between atoms: _137  and  _138
REMARK   55  A    between atoms: _140  and  _142
REMARK   56  A    between atoms: _142  and  _143
REMARK   57  A    between atoms: _142  and  _145
REMARK   58  A    between atoms: _145  and  _146
REMARK   59  A    between atoms: _156  and  _158
REMARK   60  A    between atoms: _158  and  _159
REMARK   61  A    between atoms: _158  and  _161
REMARK   62  A    between atoms: _161  and  _162
REMARK   63  A    between atoms: _165  and  _167
REMARK   64  A    between atoms: _167  and  _168
REMARK   65  A    between atoms: _167  and  _170
REMARK   66  A    between atoms: _170  and  _171
REMARK   67  A    between atoms: _174  and  _176
REMARK   68  A    between atoms: _176  and  _177
REMARK   69  A    between atoms: _176  and  _179
REMARK   70  A    between atoms: _179  and  _180
REMARK   71  A    between atoms: _183  and  _185
REMARK   72  A    between atoms: _185  and  _186
REMARK   73  A    between atoms: _185  and  _188
REMARK   74  A    between atoms: _188  and  _189
REMARK   75  A    between atoms: _192  and  _194
REMARK   76  A    between atoms: _194  and  _195
REMARK   77  A    between atoms: _194  and  _197
REMARK   78  A    between atoms: _200  and  _201
REMARK   79  A    between atoms: _206  and  _208
REMARK   80  A    between atoms: _208  and  _209
REMARK   81  A    between atoms: _208  and  _211
REMARK   82  A    between atoms: _211  and  _212
REMARK   83  A    between atoms: _215  and  _217
REMARK   84  A    between atoms: _217  and  _218
REMARK   85  A    between atoms: _217  and  _220
REMARK   86  A    between atoms: _220  and  _221
REMARK   87  A    between atoms: _221  and  _222
REMARK   88  A    between atoms: _225  and  _227
REMARK   89  A    between atoms: _227  and  _228
REMARK   90  A    between atoms: _227  and  _230
REMARK   91  A    between atoms: _230  and  _231
REMARK   92  A    between atoms: _236  and  _237
REMARK   93  A    between atoms: _239  and  _241
REMARK   94  A    between atoms: _241  and  _242
REMARK   95  A    between atoms: _241  and  _244
REMARK   96  A    between atoms: _244  and  _245
REMARK   97  A    between atoms: _248  and  _250
REMARK   98  A    between atoms: _250  and  _251
REMARK   99  A    between atoms: _250  and  _253
REMARK  100  A    between atoms: _256  and  _258
REMARK  101  A    between atoms: _258  and  _259
REMARK  102  A    between atoms: _258  and  _261
REMARK  103  A    between atoms: _261  and  _262
REMARK  104  A    between atoms: _262  and  _263
REMARK  105  A    between atoms: _265  and  _267
REMARK  106  A    between atoms: _267  and  _268
REMARK  107  A    between atoms: _267  and  _270
REMARK  108  A    between atoms: _270  and  _271
REMARK  109  A    between atoms: _281  and  _283
REMARK  110  A    between atoms: _283  and  _284
REMARK  111  A    between atoms: _283  and  _286
REMARK  112  A    between atoms: _286  and  _287
REMARK  113  A    between atoms: _290  and  _292
REMARK  114  A    between atoms: _292  and  _293
REMARK  115  A    between atoms: _295  and  _297
REMARK  116  A    between atoms: _297  and  _298
REMARK  117  A    between atoms: _300  and  _302
REMARK  118  A    between atoms: _302  and  _303
REMARK  119  A    between atoms: _302  and  _305
REMARK  120  A    between atoms: _308  and  _310
REMARK  121  A    between atoms: _310  and  _311
REMARK  122  A    between atoms: _310  and  _313
REMARK  123  A    between atoms: _316  and  _318
REMARK  124  A    between atoms: _318  and  _319
REMARK  125  A    between atoms: _322  and  _324
REMARK  126  A    between atoms: _324  and  _325
REMARK  127  A    between atoms: _324  and  _327
REMARK  128  A    between atoms: _330  and  _332
REMARK  129  A    between atoms: _332  and  _333
REMARK  130  A    between atoms: _332  and  _335
REMARK  131  A    between atoms: _335  and  _336
REMARK  132  A    between atoms: _346  and  _348
REMARK  133  A    between atoms: _348  and  _349
REMARK  134  A    between atoms: _348  and  _351
REMARK  135  A    between atoms: _351  and  _352
REMARK  136  A    between atoms: _362  and  _364
REMARK  137  A    between atoms: _364  and  _365
REMARK  138  A    between atoms: _364  and  _367
REMARK  139  A    between atoms: _367  and  _368
REMARK  140  A    between atoms: _373  and  _375
REMARK  141  A    between atoms: _375  and  _376
REMARK  142  A    between atoms: _375  and  _378
REMARK  143  A    between atoms: _378  and  _379
REMARK  144  A    between atoms: _384  and  _385
REMARK  145  A    between atoms: _387  and  _389
REMARK  146  A    between atoms: _389  and  _390
REMARK  147  A    between atoms: _389  and  _392
REMARK  148  A    between atoms: _395  and  _397
REMARK  149  A    between atoms: _397  and  _398
REMARK  150  A    between atoms: _397  and  _400
REMARK  151  A    between atoms: _400  and  _401
REMARK  152  A    between atoms: _404  and  _406
REMARK  153  A    between atoms: _406  and  _407
REMARK  154  A    between atoms: _406  and  _409
REMARK  155  A    between atoms: _409  and  _410
REMARK  156  A    between atoms: _413  and  _415
REMARK  157  A    between atoms: _415  and  _416
REMARK  158  A    between atoms: _415  and  _418
REMARK  159  A    between atoms: _418  and  _419
REMARK  160  A    between atoms: _424  and  _425
REMARK  161  A    between atoms: _427  and  _429
REMARK  162  A    between atoms: _429  and  _430
REMARK  163  A    between atoms: _429  and  _432
REMARK  164  A    between atoms: _432  and  _433
REMARK  165  A    between atoms: _439  and  _441
REMARK  166  A    between atoms: _441  and  _442
REMARK  167  A    between atoms: _441  and  _444
REMARK  168  A    between atoms: _444  and  _445
REMARK  169  A    between atoms: _448  and  _450
REMARK  170  A    between atoms: _450  and  _451
REMARK  171  A    between atoms: _450  and  _453
REMARK  172  A    between atoms: _453  and  _454
REMARK  173  A    between atoms: _460  and  _461
REMARK  174  A    between atoms: _466  and  _468
REMARK  175  A    between atoms: _468  and  _469
REMARK  176  A    between atoms: _468  and  _471
REMARK  177  A    between atoms: _471  and  _472
REMARK  178  A    between atoms: _477  and  _479
REMARK  179  A    between atoms: _479  and  _480
REMARK  180  A    between atoms: _479  and  _482
REMARK  181  A    between atoms: _482  and  _483
REMARK  182  A    between atoms: _493  and  _495
REMARK  183  A    between atoms: _495  and  _496
REMARK  184  A    between atoms: _499  and  _501
REMARK  185  A    between atoms: _501  and  _502
REMARK  186  A    between atoms: _501  and  _504
REMARK  187  A    between atoms: _504  and  _505
REMARK  188  A    between atoms: _508  and  _510
REMARK  189  A    between atoms: _510  and  _511
REMARK  190  A    between atoms: _510  and  _513
REMARK  191  A    between atoms: _513  and  _514
REMARK  192  A    between atoms: _516  and  _518
REMARK  193  A    between atoms: _518  and  _519
REMARK  194  A    between atoms: _518  and  _521
REMARK  195  A    between atoms: _521  and  _522
REMARK  196  A    between atoms: _524  and  _526
REMARK  197  A    between atoms: _526  and  _527
REMARK  198  A    between atoms: _526  and  _529
REMARK  199  A    between atoms: _529  and  _530
REMARK  200  A    between atoms: _530  and  _531
REMARK  201  A    between atoms: _531  and  _532
REMARK  202  A    between atoms: _532  and  _533
REMARK  203  A    between atoms: _537  and  _539
REMARK  204  A    between atoms: _539  and  _540
REMARK  205  A    between atoms: _539  and  _542
REMARK  206  A    between atoms: _542  and  _543
REMARK  207  A    between atoms: _549  and  _551
REMARK  208  A    between atoms: _551  and  _552
REMARK  209  A    between atoms: _551  and  _554
REMARK  210  A    between atoms: _554  and  _555
REMARK  211  A    between atoms: _558  and  _560
REMARK  212  A    between atoms: _560  and  _561
REMARK  213  A    between atoms: _560  and  _563
REMARK  214  A    between atoms: _563  and  _564
REMARK  215  A    between atoms: _567  and  _569
REMARK  216  A    between atoms: _569  and  _570
REMARK  217  A    between atoms: _569  and  _572
REMARK  218  A    between atoms: _572  and  _573
REMARK  219  A    between atoms: _576  and  _578
REMARK  220  A    between atoms: _578  and  _579
REMARK  221  A    between atoms: _578  and  _581
REMARK  222  A    between atoms: _581  and  _582
REMARK  223  A    between atoms: _585  and  _587
REMARK  224  A    between atoms: _587  and  _588
REMARK  225  A    between atoms: _587  and  _590
REMARK  226  A    between atoms: _590  and  _591
REMARK                            x       y       z     vdW  Elec       q    Type
REMARK                         _______ _______ _______ _____ _____    ______ ____
ROOT
ATOM      1  O   HOH     1      -2.568   9.342  10.493  0.00  0.00    +0.000 OA
ENDROOT
TORSDOF 0
REMARK  Name = ../refined-set-2016/2xpk/2xpk_pocket.pdb
REMARK  226 active torsions:
REMARK  status: ('A' for Active; 'I' for Inactive)
REMARK    1  A    between atoms: _1  and  _3
REMARK    2  A    between atoms: _3  and  _4
REMARK    3  A    between atoms: _3  and  _6
REMARK    4  A    between atoms: _9  and  _11
REMARK    5  A    between atoms: _11  and  _12
REMARK    6  A    between atoms: _11  and  _14
REMARK    7  A    between atoms: _14  and  _15
REMARK    8  A    between atoms: _15  and  _16
REMARK    9  A    between atoms: _19  and  _21
REMARK   10  A    between atoms: _21  and  _22
REMARK   11  A    between atoms: _24  and  _26
REMARK   12  A    between atoms: _26  and  _27
REMARK   13  A    between atoms: _26  and  _29
REMARK   14  A    between atoms: _29  and  _30
REMARK   15  A    between atoms: _36  and  _38
REMARK   16  A    between atoms: _38  and  _39
REMARK   17  A    between atoms: _38  and  _41
REMARK   18  A    between atoms: _41  and  _42
REMARK   19  A    between atoms: _47  and  _48
REMARK   20  A    between atoms: _50  and  _52
REMARK   21  A    between atoms: _52  and  _53
REMARK   22  A    between atoms: _55  and  _57
REMARK   23  A    between atoms: _57  and  _58
REMARK   24  A    between atoms: _62  and  _63
REMARK   25  A    between atoms: _68  and  _70
REMARK   26  A    between atoms: _70  and  _71
REMARK   27  A    between atoms: _70  and  _73
REMARK   28  A    between atoms: _73  and  _74
REMARK   29  A    between atoms: _74  and  _75
REMARK   30  A    between atoms: _75  and  _76
REMARK   31  A    between atoms: _76  and  _77
REMARK   32  A    between atoms: _81  and  _83
REMARK   33  A    between atoms: _83  and  _84
REMARK   34  A    between atoms: _83  and  _86
REMARK   35  A    between atoms: _86  and  _87
REMARK   36  A    between atoms: _90  and  _92
REMARK   37  A    between atoms: _92  and  _93
REMARK   38  A    between atoms: _92  and  _95
REMARK   39  A    between atoms: _95  and  _96
REMARK   40  A    between atoms: _101  and  _103
REMARK   41  A    between atoms: _103  and  _104
REMARK   42  A    between atoms: _103  and  _106
REMARK   43  A    between atoms: _106  and  _107
REMARK   44  A    between atoms: _107  and  _108
REMARK   45  A    between atoms: _108  and  _109
REMARK   46  A    between atoms: _118  and  _120
REMARK   47  A    between atoms: _120  and  _121
REMARK   48  A    between atoms: _120  and  _123
REMARK   49  A    between atoms: _123  and  _124
REMARK   50  A    between atoms: _126  and  _128
REMARK   51  A    between atoms: _128  and  _129
REMARK   52  A    between atoms: _128  and  _131
REMARK   53  A    between atoms: _131  and  _132
REMARK   54  A    between atoms: _137  and  _138
REMARK   55  A    between atoms: _140  and  _142
REMARK   56  A    between atoms: _142  and  _143
REMARK   57  A    between atoms: _142  and  _145
REMARK   58  A    between atoms: _145  and  _146
REMARK   59  A    between atoms: _156  and  _158
REMARK   60  A    between atoms: _158  and  _159
REMARK   61  A    between atoms: _158  and  _161
REMARK   62  A    between atoms: _161  and  _162
REMARK   63  A    between atoms: _165  and  _167
REMARK   64  A    between atoms: _167  and  _168
REMARK   65  A    between atoms: _167  and  _170
REMARK   66  A    between atoms: _170  and  _171
REMARK   67  A    between atoms: _174  and  _176
REMARK   68  A    between atoms: _176  and  _177
REMARK   69  A    between atoms: _176  and  _179
REMARK   70  A    between atoms: _179  and  _180
REMARK   71  A    between atoms: _183  and  _185
REMARK   72  A    between atoms: _185  and  _186
REMARK   73  A    between atoms: _185  and  _188
REMARK   74  A    between atoms: _188  and  _189
REMARK   75  A    between atoms: _192  and  _194
REMARK   76  A    between atoms: _194  and  _195
REMARK   77  A    between atoms: _194  and  _197
REMARK   78  A    between atoms: _200  and  _201
REMARK   79  A    between atoms: _206  and  _208
REMARK   80  A    between atoms: _208  and  _209
REMARK   81  A    between atoms: _208  and  _211
REMARK   82  A    between atoms: _211  and  _212
REMARK   83  A    between atoms: _215  and  _217
REMARK   84  A    between atoms: _217  and  _218
REMARK   85  A    between atoms: _217  and  _220
REMARK   86  A    between atoms: _220  and  _221
REMARK   87  A    between atoms: _221  and  _222
REMARK   88  A    between atoms: _225  and  _227
REMARK   89  A    between atoms: _227  and  _228
REMARK   90  A    between atoms: _227  and  _230
REMARK   91  A    between atoms: _230  and  _231
REMARK   92  A    between atoms: _236  and  _237
REMARK   93  A    between atoms: _239  and  _241
REMARK   94  A    between atoms: _241  and  _242
REMARK   95  A    between atoms: _241  and  _244
REMARK   96  A    between atoms: _244  and  _245
REMARK   97  A    between atoms: _248  and  _250
REMARK   98  A    between atoms: _250  and  _251
REMARK   99  A    between atoms: _250  and  _253
REMARK  100  A    between atoms: _256  and  _258
REMARK  101  A    between atoms: _258  and  _259
REMARK  102  A    between atoms: _258  and  _261
REMARK  103  A    between atoms: _261  and  _262
REMARK  104  A    between atoms: _262  and  _263
REMARK  105  A    between atoms: _265  and  _267
REMARK  106  A    between atoms: _267  and  _268
REMARK  107  A    between atoms: _267  and  _270
REMARK  108  A    between atoms: _270  and  _271
REMARK  109  A    between atoms: _281  and  _283
REMARK  110  A    between atoms: _283  and  _284
REMARK  111  A    between atoms: _283  and  _286
REMARK  112  A    between atoms: _286  and  _287
REMARK  113  A    between atoms: _290  and  _292
REMARK  114  A    between atoms: _292  and  _293
REMARK  115  A    between atoms: _295  and  _297
REMARK  116  A    between atoms: _297  and  _298
REMARK  117  A    between atoms: _300  and  _302
REMARK  118  A    between atoms: _302  and  _303
REMARK  119  A    between atoms: _302  and  _305
REMARK  120  A    between atoms: _308  and  _310
REMARK  121  A    between atoms: _310  and  _311
REMARK  122  A    between atoms: _310  and  _313
REMARK  123  A    between atoms: _316  and  _318
REMARK  124  A    between atoms: _318  and  _319
REMARK  125  A    between atoms: _322  and  _324
REMARK  126  A    between atoms: _324  and  _325
REMARK  127  A    between atoms: _324  and  _327
REMARK  128  A    between atoms: _330  and  _332
REMARK  129  A    between atoms: _332  and  _333
REMARK  130  A    between atoms: _332  and  _335
REMARK  131  A    between atoms: _335  and  _336
REMARK  132  A    between atoms: _346  and  _348
REMARK  133  A    between atoms: _348  and  _349
REMARK  134  A    between atoms: _348  and  _351
REMARK  135  A    between atoms: _351  and  _352
REMARK  136  A    between atoms: _362  and  _364
REMARK  137  A    between atoms: _364  and  _365
REMARK  138  A    between atoms: _364  and  _367
REMARK  139  A    between atoms: _367  and  _368
REMARK  140  A    between atoms: _373  and  _375
REMARK  141  A    between atoms: _375  and  _376
REMARK  142  A    between atoms: _375  and  _378
REMARK  143  A    between atoms: _378  and  _379
REMARK  144  A    between atoms: _384  and  _385
REMARK  145  A    between atoms: _387  and  _389
REMARK  146  A    between atoms: _389  and  _390
REMARK  147  A    between atoms: _389  and  _392
REMARK  148  A    between atoms: _395  and  _397
REMARK  149  A    between atoms: _397  and  _398
REMARK  150  A    between atoms: _397  and  _400
REMARK  151  A    between atoms: _400  and  _401
REMARK  152  A    between atoms: _404  and  _406
REMARK  153  A    between atoms: _406  and  _407
REMARK  154  A    between atoms: _406  and  _409
REMARK  155  A    between atoms: _409  and  _410
REMARK  156  A    between atoms: _413  and  _415
REMARK  157  A    between atoms: _415  and  _416
REMARK  158  A    between atoms: _415  and  _418
REMARK  159  A    between atoms: _418  and  _419
REMARK  160  A    between atoms: _424  and  _425
REMARK  161  A    between atoms: _427  and  _429
REMARK  162  A    between atoms: _429  and  _430
REMARK  163  A    between atoms: _429  and  _432
REMARK  164  A    between atoms: _432  and  _433
REMARK  165  A    between atoms: _439  and  _441
REMARK  166  A    between atoms: _441  and  _442
REMARK  167  A    between atoms: _441  and  _444
REMARK  168  A    between atoms: _444  and  _445
REMARK  169  A    between atoms: _448  and  _450
REMARK  170  A    between atoms: _450  and  _451
REMARK  171  A    between atoms: _450  and  _453
REMARK  172  A    between atoms: _453  and  _454
REMARK  173  A    between atoms: _460  and  _461
REMARK  174  A    between atoms: _466  and  _468
REMARK  175  A    between atoms: _468  and  _469
REMARK  176  A    between atoms: _468  and  _471
REMARK  177  A    between atoms: _471  and  _472
REMARK  178  A    between atoms: _477  and  _479
REMARK  179  A    between atoms: _479  and  _480
REMARK  180  A    between atoms: _479  and  _482
REMARK  181  A    between atoms: _482  and  _483
REMARK  182  A    between atoms: _493  and  _495
REMARK  183  A    between atoms: _495  and  _496
REMARK  184  A    between atoms: _499  and  _501
REMARK  185  A    between atoms: _501  and  _502
REMARK  186  A    between atoms: _501  and  _504
REMARK  187  A    between atoms: _504  and  _505
REMARK  188  A    between atoms: _508  and  _510
REMARK  189  A    between atoms: _510  and  _511
REMARK  190  A    between atoms: _510  and  _513
REMARK  191  A    between atoms: _513  and  _514
REMARK  192  A    between atoms: _516  and  _518
REMARK  193  A    between atoms: _518  and  _519
REMARK  194  A    between atoms: _518  and  _521
REMARK  195  A    between atoms: _521  and  _522
REMARK  196  A    between atoms: _524  and  _526
REMARK  197  A    between atoms: _526  and  _527
REMARK  198  A    between atoms: _526  and  _529
REMARK  199  A    between atoms: _529  and  _530
REMARK  200  A    between atoms: _530  and  _531
REMARK  201  A    between atoms: _531  and  _532
REMARK  202  A    between atoms: _532  and  _533
REMARK  203  A    between atoms: _537  and  _539
REMARK  204  A    between atoms: _539  and  _540
REMARK  205  A    between atoms: _539  and  _542
REMARK  206  A    between atoms: _542  and  _543
REMARK  207  A    between atoms: _549  and  _551
REMARK  208  A    between atoms: _551  and  _552
REMARK  209  A    between atoms: _551  and  _554
REMARK  210  A    between atoms: _554  and  _555
REMARK  211  A    between atoms: _558  and  _560
REMARK  212  A    between atoms: _560  and  _561
REMARK  213  A    between atoms: _560  and  _563
REMARK  214  A    between atoms: _563  and  _564
REMARK  215  A    between atoms: _567  and  _569
REMARK  216  A    between atoms: _569  and  _570
REMARK  217  A    between atoms: _569  and  _572
REMARK  218  A    between atoms: _572  and  _573
REMARK  219  A    between atoms: _576  and  _578
REMARK  220  A    between atoms: _578  and  _579
REMARK  221  A    between atoms: _578  and  _581
REMARK  222  A    between atoms: _581  and  _582
REMARK  223  A    between atoms: _585  and  _587
REMARK  224  A    between atoms: _587  and  _588
REMARK  225  A    between atoms: _587  and  _590
REMARK  226  A    between atoms: _590  and  _591
REMARK                            x       y       z     vdW  Elec       q    Type
REMARK                         _______ _______ _______ _____ _____    ______ ____
ROOT
ATOM      1  O   HOH     1       3.625  12.271  19.129  0.00  0.00    +0.000 OA
ENDROOT
TORSDOF 0
REMARK  Name = ../refined-set-2016/2xpk/2xpk_pocket.pdb
REMARK  226 active torsions:
REMARK  status: ('A' for Active; 'I' for Inactive)
REMARK    1  A    between atoms: _1  and  _3
REMARK    2  A    between atoms: _3  and  _4
REMARK    3  A    between atoms: _3  and  _6
REMARK    4  A    between atoms: _9  and  _11
REMARK    5  A    between atoms: _11  and  _12
REMARK    6  A    between atoms: _11  and  _14
REMARK    7  A    between atoms: _14  and  _15
REMARK    8  A    between atoms: _15  and  _16
REMARK    9  A    between atoms: _19  and  _21
REMARK   10  A    between atoms: _21  and  _22
REMARK   11  A    between atoms: _24  and  _26
REMARK   12  A    between atoms: _26  and  _27
REMARK   13  A    between atoms: _26  and  _29
REMARK   14  A    between atoms: _29  and  _30
REMARK   15  A    between atoms: _36  and  _38
REMARK   16  A    between atoms: _38  and  _39
REMARK   17  A    between atoms: _38  and  _41
REMARK   18  A    between atoms: _41  and  _42
REMARK   19  A    between atoms: _47  and  _48
REMARK   20  A    between atoms: _50  and  _52
REMARK   21  A    between atoms: _52  and  _53
REMARK   22  A    between atoms: _55  and  _57
REMARK   23  A    between atoms: _57  and  _58
REMARK   24  A    between atoms: _62  and  _63
REMARK   25  A    between atoms: _68  and  _70
REMARK   26  A    between atoms: _70  and  _71
REMARK   27  A    between atoms: _70  and  _73
REMARK   28  A    between atoms: _73  and  _74
REMARK   29  A    between atoms: _74  and  _75
REMARK   30  A    between atoms: _75  and  _76
REMARK   31  A    between atoms: _76  and  _77
REMARK   32  A    between atoms: _81  and  _83
REMARK   33  A    between atoms: _83  and  _84
REMARK   34  A    between atoms: _83  and  _86
REMARK   35  A    between atoms: _86  and  _87
REMARK   36  A    between atoms: _90  and  _92
REMARK   37  A    between atoms: _92  and  _93
REMARK   38  A    between atoms: _92  and  _95
REMARK   39  A    between atoms: _95  and  _96
REMARK   40  A    between atoms: _101  and  _103
REMARK   41  A    between atoms: _103  and  _104
REMARK   42  A    between atoms: _103  and  _106
REMARK   43  A    between atoms: _106  and  _107
REMARK   44  A    between atoms: _107  and  _108
REMARK   45  A    between atoms: _108  and  _109
REMARK   46  A    between atoms: _118  and  _120
REMARK   47  A    between atoms: _120  and  _121
REMARK   48  A    between atoms: _120  and  _123
REMARK   49  A    between atoms: _123  and  _124
REMARK   50  A    between atoms: _126  and  _128
REMARK   51  A    between atoms: _128  and  _129
REMARK   52  A    between atoms: _128  and  _131
REMARK   53  A    between atoms: _131  and  _132
REMARK   54  A    between atoms: _137  and  _138
REMARK   55  A    between atoms: _140  and  _142
REMARK   56  A    between atoms: _142  and  _143
REMARK   57  A    between atoms: _142  and  _145
REMARK   58  A    between atoms: _145  and  _146
REMARK   59  A    between atoms: _156  and  _158
REMARK   60  A    between atoms: _158  and  _159
REMARK   61  A    between atoms: _158  and  _161
REMARK   62  A    between atoms: _161  and  _162
REMARK   63  A    between atoms: _165  and  _167
REMARK   64  A    between atoms: _167  and  _168
REMARK   65  A    between atoms: _167  and  _170
REMARK   66  A    between atoms: _170  and  _171
REMARK   67  A    between atoms: _174  and  _176
REMARK   68  A    between atoms: _176  and  _177
REMARK   69  A    between atoms: _176  and  _179
REMARK   70  A    between atoms: _179  and  _180
REMARK   71  A    between atoms: _183  and  _185
REMARK   72  A    between atoms: _185  and  _186
REMARK   73  A    between atoms: _185  and  _188
REMARK   74  A    between atoms: _188  and  _189
REMARK   75  A    between atoms: _192  and  _194
REMARK   76  A    between atoms: _194  and  _195
REMARK   77  A    between atoms: _194  and  _197
REMARK   78  A    between atoms: _200  and  _201
REMARK   79  A    between atoms: _206  and  _208
REMARK   80  A    between atoms: _208  and  _209
REMARK   81  A    between atoms: _208  and  _211
REMARK   82  A    between atoms: _211  and  _212
REMARK   83  A    between atoms: _215  and  _217
REMARK   84  A    between atoms: _217  and  _218
REMARK   85  A    between atoms: _217  and  _220
REMARK   86  A    between atoms: _220  and  _221
REMARK   87  A    between atoms: _221  and  _222
REMARK   88  A    between atoms: _225  and  _227
REMARK   89  A    between atoms: _227  and  _228
REMARK   90  A    between atoms: _227  and  _230
REMARK   91  A    between atoms: _230  and  _231
REMARK   92  A    between atoms: _236  and  _237
REMARK   93  A    between atoms: _239  and  _241
REMARK   94  A    between atoms: _241  and  _242
REMARK   95  A    between atoms: _241  and  _244
REMARK   96  A    between atoms: _244  and  _245
REMARK   97  A    between atoms: _248  and  _250
REMARK   98  A    between atoms: _250  and  _251
REMARK   99  A    between atoms: _250  and  _253
REMARK  100  A    between atoms: _256  and  _258
REMARK  101  A    between atoms: _258  and  _259
REMARK  102  A    between atoms: _258  and  _261
REMARK  103  A    between atoms: _261  and  _262
REMARK  104  A    between atoms: _262  and  _263
REMARK  105  A    between atoms: _265  and  _267
REMARK  106  A    between atoms: _267  and  _268
REMARK  107  A    between atoms: _267  and  _270
REMARK  108  A    between atoms: _270  and  _271
REMARK  109  A    between atoms: _281  and  _283
REMARK  110  A    between atoms: _283  and  _284
REMARK  111  A    between atoms: _283  and  _286
REMARK  112  A    between atoms: _286  and  _287
REMARK  113  A    between atoms: _290  and  _292
REMARK  114  A    between atoms: _292  and  _293
REMARK  115  A    between atoms: _295  and  _297
REMARK  116  A    between atoms: _297  and  _298
REMARK  117  A    between atoms: _300  and  _302
REMARK  118  A    between atoms: _302  and  _303
REMARK  119  A    between atoms: _302  and  _305
REMARK  120  A    between atoms: _308  and  _310
REMARK  121  A    between atoms: _310  and  _311
REMARK  122  A    between atoms: _310  and  _313
REMARK  123  A    between atoms: _316  and  _318
REMARK  124  A    between atoms: _318  and  _319
REMARK  125  A    between atoms: _322  and  _324
REMARK  126  A    between atoms: _324  and  _325
REMARK  127  A    between atoms: _324  and  _327
REMARK  128  A    between atoms: _330  and  _332
REMARK  129  A    between atoms: _332  and  _333
REMARK  130  A    between atoms: _332  and  _335
REMARK  131  A    between atoms: _335  and  _336
REMARK  132  A    between atoms: _346  and  _348
REMARK  133  A    between atoms: _348  and  _349
REMARK  134  A    between atoms: _348  and  _351
REMARK  135  A    between atoms: _351  and  _352
REMARK  136  A    between atoms: _362  and  _364
REMARK  137  A    between atoms: _364  and  _365
REMARK  138  A    between atoms: _364  and  _367
REMARK  139  A    between atoms: _367  and  _368
REMARK  140  A    between atoms: _373  and  _375
REMARK  141  A    between atoms: _375  and  _376
REMARK  142  A    between atoms: _375  and  _378
REMARK  143  A    between atoms: _378  and  _379
REMARK  144  A    between atoms: _384  and  _385
REMARK  145  A    between atoms: _387  and  _389
REMARK  146  A    between atoms: _389  and  _390
REMARK  147  A    between atoms: _389  and  _392
REMARK  148  A    between atoms: _395  and  _397
REMARK  149  A    between atoms: _397  and  _398
REMARK  150  A    between atoms: _397  and  _400
REMARK  151  A    between atoms: _400  and  _401
REMARK  152  A    between atoms: _404  and  _406
REMARK  153  A    between atoms: _406  and  _407
REMARK  154  A    between atoms: _406  and  _409
REMARK  155  A    between atoms: _409  and  _410
REMARK  156  A    between atoms: _413  and  _415
REMARK  157  A    between atoms: _415  and  _416
REMARK  158  A    between atoms: _415  and  _418
REMARK  159  A    between atoms: _418  and  _419
REMARK  160  A    between atoms: _424  and  _425
REMARK  161  A    between atoms: _427  and  _429
REMARK  162  A    between atoms: _429  and  _430
REMARK  163  A    between atoms: _429  and  _432
REMARK  164  A    between atoms: _432  and  _433
REMARK  165  A    between atoms: _439  and  _441
REMARK  166  A    between atoms: _441  and  _442
REMARK  167  A    between atoms: _441  and  _444
REMARK  168  A    between atoms: _444  and  _445
REMARK  169  A    between atoms: _448  and  _450
REMARK  170  A    between atoms: _450  and  _451
REMARK  171  A    between atoms: _450  and  _453
REMARK  172  A    between atoms: _453  and  _454
REMARK  173  A    between atoms: _460  and  _461
REMARK  174  A    between atoms: _466  and  _468
REMARK  175  A    between atoms: _468  and  _469
REMARK  176  A    between atoms: _468  and  _471
REMARK  177  A    between atoms: _471  and  _472
REMARK  178  A    between atoms: _477  and  _479
REMARK  179  A    between atoms: _479  and  _480
REMARK  180  A    between atoms: _479  and  _482
REMARK  181  A    between atoms: _482  and  _483
REMARK  182  A    between atoms: _493  and  _495
REMARK  183  A    between atoms: _495  and  _496
REMARK  184  A    between atoms: _499  and  _501
REMARK  185  A    between atoms: _501  and  _502
REMARK  186  A    between atoms: _501  and  _504
REMARK  187  A    between atoms: _504  and  _505
REMARK  188  A    between atoms: _508  and  _510
REMARK  189  A    between atoms: _510  and  _511
REMARK  190  A    between atoms: _510  and  _513
REMARK  191  A    between atoms: _513  and  _514
REMARK  192  A    between atoms: _516  and  _518
REMARK  193  A    between atoms: _518  and  _519
REMARK  194  A    between atoms: _518  and  _521
REMARK  195  A    between atoms: _521  and  _522
REMARK  196  A    between atoms: _524  and  _526
REMARK  197  A    between atoms: _526  and  _527
REMARK  198  A    between atoms: _526  and  _529
REMARK  199  A    between atoms: _529  and  _530
REMARK  200  A    between atoms: _530  and  _531
REMARK  201  A    between atoms: _531  and  _532
REMARK  202  A    between atoms: _532  and  _533
REMARK  203  A    between atoms: _537  and  _539
REMARK  204  A    between atoms: _539  and  _540
REMARK  205  A    between atoms: _539  and  _542
REMARK  206  A    between atoms: _542  and  _543
REMARK  207  A    between atoms: _549  and  _551
REMARK  208  A    between atoms: _551  and  _552
REMARK  209  A    between atoms: _551  and  _554
REMARK  210  A    between atoms: _554  and  _555
REMARK  211  A    between atoms: _558  and  _560
REMARK  212  A    between atoms: _560  and  _561
REMARK  213  A    between atoms: _560  and  _563
REMARK  214  A    between atoms: _563  and  _564
REMARK  215  A    between atoms: _567  and  _569
REMARK  216  A    between atoms: _569  and  _570
REMARK  217  A    between atoms: _569  and  _572
REMARK  218  A    between atoms: _572  and  _573
REMARK  219  A    between atoms: _576  and  _578
REMARK  220  A    between atoms: _578  and  _579
REMARK  221  A    between atoms: _578  and  _581
REMARK  222  A    between atoms: _581  and  _582
REMARK  223  A    between atoms: _585  and  _587
REMARK  224  A    between atoms: _587  and  _588
REMARK  225  A    between atoms: _587  and  _590
REMARK  226  A    between atoms: _590  and  _591
REMARK                            x       y       z     vdW  Elec       q    Type
REMARK                         _______ _______ _______ _____ _____    ______ ____
ROOT
ATOM      1  O   HOH     1      10.793   5.949  19.375  0.00  0.00    +0.000 OA
ENDROOT
TORSDOF 0
REMARK  Name = ../refined-set-2016/2xpk/2xpk_pocket.pdb
REMARK  226 active torsions:
REMARK  status: ('A' for Active; 'I' for Inactive)
REMARK    1  A    between atoms: _1  and  _3
REMARK    2  A    between atoms: _3  and  _4
REMARK    3  A    between atoms: _3  and  _6
REMARK    4  A    between atoms: _9  and  _11
REMARK    5  A    between atoms: _11  and  _12
REMARK    6  A    between atoms: _11  and  _14
REMARK    7  A    between atoms: _14  and  _15
REMARK    8  A    between atoms: _15  and  _16
REMARK    9  A    between atoms: _19  and  _21
REMARK   10  A    between atoms: _21  and  _22
REMARK   11  A    between atoms: _24  and  _26
REMARK   12  A    between atoms: _26  and  _27
REMARK   13  A    between atoms: _26  and  _29
REMARK   14  A    between atoms: _29  and  _30
REMARK   15  A    between atoms: _36  and  _38
REMARK   16  A    between atoms: _38  and  _39
REMARK   17  A    between atoms: _38  and  _41
REMARK   18  A    between atoms: _41  and  _42
REMARK   19  A    between atoms: _47  and  _48
REMARK   20  A    between atoms: _50  and  _52
REMARK   21  A    between atoms: _52  and  _53
REMARK   22  A    between atoms: _55  and  _57
REMARK   23  A    between atoms: _57  and  _58
REMARK   24  A    between atoms: _62  and  _63
REMARK   25  A    between atoms: _68  and  _70
REMARK   26  A    between atoms: _70  and  _71
REMARK   27  A    between atoms: _70  and  _73
REMARK   28  A    between atoms: _73  and  _74
REMARK   29  A    between atoms: _74  and  _75
REMARK   30  A    between atoms: _75  and  _76
REMARK   31  A    between atoms: _76  and  _77
REMARK   32  A    between atoms: _81  and  _83
REMARK   33  A    between atoms: _83  and  _84
REMARK   34  A    between atoms: _83  and  _86
REMARK   35  A    between atoms: _86  and  _87
REMARK   36  A    between atoms: _90  and  _92
REMARK   37  A    between atoms: _92  and  _93
REMARK   38  A    between atoms: _92  and  _95
REMARK   39  A    between atoms: _95  and  _96
REMARK   40  A    between atoms: _101  and  _103
REMARK   41  A    between atoms: _103  and  _104
REMARK   42  A    between atoms: _103  and  _106
REMARK   43  A    between atoms: _106  and  _107
REMARK   44  A    between atoms: _107  and  _108
REMARK   45  A    between atoms: _108  and  _109
REMARK   46  A    between atoms: _118  and  _120
REMARK   47  A    between atoms: _120  and  _121
REMARK   48  A    between atoms: _120  and  _123
REMARK   49  A    between atoms: _123  and  _124
REMARK   50  A    between atoms: _126  and  _128
REMARK   51  A    between atoms: _128  and  _129
REMARK   52  A    between atoms: _128  and  _131
REMARK   53  A    between atoms: _131  and  _132
REMARK   54  A    between atoms: _137  and  _138
REMARK   55  A    between atoms: _140  and  _142
REMARK   56  A    between atoms: _142  and  _143
REMARK   57  A    between atoms: _142  and  _145
REMARK   58  A    between atoms: _145  and  _146
REMARK   59  A    between atoms: _156  and  _158
REMARK   60  A    between atoms: _158  and  _159
REMARK   61  A    between atoms: _158  and  _161
REMARK   62  A    between atoms: _161  and  _162
REMARK   63  A    between atoms: _165  and  _167
REMARK   64  A    between atoms: _167  and  _168
REMARK   65  A    between atoms: _167  and  _170
REMARK   66  A    between atoms: _170  and  _171
REMARK   67  A    between atoms: _174  and  _176
REMARK   68  A    between atoms: _176  and  _177
REMARK   69  A    between atoms: _176  and  _179
REMARK   70  A    between atoms: _179  and  _180
REMARK   71  A    between atoms: _183  and  _185
REMARK   72  A    between atoms: _185  and  _186
REMARK   73  A    between atoms: _185  and  _188
REMARK   74  A    between atoms: _188  and  _189
REMARK   75  A    between atoms: _192  and  _194
REMARK   76  A    between atoms: _194  and  _195
REMARK   77  A    between atoms: _194  and  _197
REMARK   78  A    between atoms: _200  and  _201
REMARK   79  A    between atoms: _206  and  _208
REMARK   80  A    between atoms: _208  and  _209
REMARK   81  A    between atoms: _208  and  _211
REMARK   82  A    between atoms: _211  and  _212
REMARK   83  A    between atoms: _215  and  _217
REMARK   84  A    between atoms: _217  and  _218
REMARK   85  A    between atoms: _217  and  _220
REMARK   86  A    between atoms: _220  and  _221
REMARK   87  A    between atoms: _221  and  _222
REMARK   88  A    between atoms: _225  and  _227
REMARK   89  A    between atoms: _227  and  _228
REMARK   90  A    between atoms: _227  and  _230
REMARK   91  A    between atoms: _230  and  _231
REMARK   92  A    between atoms: _236  and  _237
REMARK   93  A    between atoms: _239  and  _241
REMARK   94  A    between atoms: _241  and  _242
REMARK   95  A    between atoms: _241  and  _244
REMARK   96  A    between atoms: _244  and  _245
REMARK   97  A    between atoms: _248  and  _250
REMARK   98  A    between atoms: _250  and  _251
REMARK   99  A    between atoms: _250  and  _253
REMARK  100  A    between atoms: _256  and  _258
REMARK  101  A    between atoms: _258  and  _259
REMARK  102  A    between atoms: _258  and  _261
REMARK  103  A    between atoms: _261  and  _262
REMARK  104  A    between atoms: _262  and  _263
REMARK  105  A    between atoms: _265  and  _267
REMARK  106  A    between atoms: _267  and  _268
REMARK  107  A    between atoms: _267  and  _270
REMARK  108  A    between atoms: _270  and  _271
REMARK  109  A    between atoms: _281  and  _283
REMARK  110  A    between atoms: _283  and  _284
REMARK  111  A    between atoms: _283  and  _286
REMARK  112  A    between atoms: _286  and  _287
REMARK  113  A    between atoms: _290  and  _292
REMARK  114  A    between atoms: _292  and  _293
REMARK  115  A    between atoms: _295  and  _297
REMARK  116  A    between atoms: _297  and  _298
REMARK  117  A    between atoms: _300  and  _302
REMARK  118  A    between atoms: _302  and  _303
REMARK  119  A    between atoms: _302  and  _305
REMARK  120  A    between atoms: _308  and  _310
REMARK  121  A    between atoms: _310  and  _311
REMARK  122  A    between atoms: _310  and  _313
REMARK  123  A    between atoms: _316  and  _318
REMARK  124  A    between atoms: _318  and  _319
REMARK  125  A    between atoms: _322  and  _324
REMARK  126  A    between atoms: _324  and  _325
REMARK  127  A    between atoms: _324  and  _327
REMARK  128  A    between atoms: _330  and  _332
REMARK  129  A    between atoms: _332  and  _333
REMARK  130  A    between atoms: _332  and  _335
REMARK  131  A    between atoms: _335  and  _336
REMARK  132  A    between atoms: _346  and  _348
REMARK  133  A    between atoms: _348  and  _349
REMARK  134  A    between atoms: _348  and  _351
REMARK  135  A    between atoms: _351  and  _352
REMARK  136  A    between atoms: _362  and  _364
REMARK  137  A    between atoms: _364  and  _365
REMARK  138  A    between atoms: _364  and  _367
REMARK  139  A    between atoms: _367  and  _368
REMARK  140  A    between atoms: _373  and  _375
REMARK  141  A    between atoms: _375  and  _376
REMARK  142  A    between atoms: _375  and  _378
REMARK  143  A    between atoms: _378  and  _379
REMARK  144  A    between atoms: _384  and  _385
REMARK  145  A    between atoms: _387  and  _389
REMARK  146  A    between atoms: _389  and  _390
REMARK  147  A    between atoms: _389  and  _392
REMARK  148  A    between atoms: _395  and  _397
REMARK  149  A    between atoms: _397  and  _398
REMARK  150  A    between atoms: _397  and  _400
REMARK  151  A    between atoms: _400  and  _401
REMARK  152  A    between atoms: _404  and  _406
REMARK  153  A    between atoms: _406  and  _407
REMARK  154  A    between atoms: _406  and  _409
REMARK  155  A    between atoms: _409  and  _410
REMARK  156  A    between atoms: _413  and  _415
REMARK  157  A    between atoms: _415  and  _416
REMARK  158  A    between atoms: _415  and  _418
REMARK  159  A    between atoms: _418  and  _419
REMARK  160  A    between atoms: _424  and  _425
REMARK  161  A    between atoms: _427  and  _429
REMARK  162  A    between atoms: _429  and  _430
REMARK  163  A    between atoms: _429  and  _432
REMARK  164  A    between atoms: _432  and  _433
REMARK  165  A    between atoms: _439  and  _441
REMARK  166  A    between atoms: _441  and  _442
REMARK  167  A    between atoms: _441  and  _444
REMARK  168  A    between atoms: _444  and  _445
REMARK  169  A    between atoms: _448  and  _450
REMARK  170  A    between atoms: _450  and  _451
REMARK  171  A    between atoms: _450  and  _453
REMARK  172  A    between atoms: _453  and  _454
REMARK  173  A    between atoms: _460  and  _461
REMARK  174  A    between atoms: _466  and  _468
REMARK  175  A    between atoms: _468  and  _469
REMARK  176  A    between atoms: _468  and  _471
REMARK  177  A    between atoms: _471  and  _472
REMARK  178  A    between atoms: _477  and  _479
REMARK  179  A    between atoms: _479  and  _480
REMARK  180  A    between atoms: _479  and  _482
REMARK  181  A    between atoms: _482  and  _483
REMARK  182  A    between atoms: _493  and  _495
REMARK  183  A    between atoms: _495  and  _496
REMARK  184  A    between atoms: _499  and  _501
REMARK  185  A    between atoms: _501  and  _502
REMARK  186  A    between atoms: _501  and  _504
REMARK  187  A    between atoms: _504  and  _505
REMARK  188  A    between atoms: _508  and  _510
REMARK  189  A    between atoms: _510  and  _511
REMARK  190  A    between atoms: _510  and  _513
REMARK  191  A    between atoms: _513  and  _514
REMARK  192  A    between atoms: _516  and  _518
REMARK  193  A    between atoms: _518  and  _519
REMARK  194  A    between atoms: _518  and  _521
REMARK  195  A    between atoms: _521  and  _522
REMARK  196  A    between atoms: _524  and  _526
REMARK  197  A    between atoms: _526  and  _527
REMARK  198  A    between atoms: _526  and  _529
REMARK  199  A    between atoms: _529  and  _530
REMARK  200  A    between atoms: _530  and  _531
REMARK  201  A    between atoms: _531  and  _532
REMARK  202  A    between atoms: _532  and  _533
REMARK  203  A    between atoms: _537  and  _539
REMARK  204  A    between atoms: _539  and  _540
REMARK  205  A    between atoms: _539  and  _542
REMARK  206  A    between atoms: _542  and  _543
REMARK  207  A    between atoms: _549  and  _551
REMARK  208  A    between atoms: _551  and  _552
REMARK  209  A    between atoms: _551  and  _554
REMARK  210  A    between atoms: _554  and  _555
REMARK  211  A    between atoms: _558  and  _560
REMARK  212  A    between atoms: _560  and  _561
REMARK  213  A    between atoms: _560  and  _563
REMARK  214  A    between atoms: _563  and  _564
REMARK  215  A    between atoms: _567  and  _569
REMARK  216  A    between atoms: _569  and  _570
REMARK  217  A    between atoms: _569  and  _572
REMARK  218  A    between atoms: _572  and  _573
REMARK  219  A    between atoms: _576  and  _578
REMARK  220  A    between atoms: _578  and  _579
REMARK  221  A    between atoms: _578  and  _581
REMARK  222  A    between atoms: _581  and  _582
REMARK  223  A    between atoms: _585  and  _587
REMARK  224  A    between atoms: _587  and  _588
REMARK  225  A    between atoms: _587  and  _590
REMARK  226  A    between atoms: _590  and  _591
REMARK                            x       y       z     vdW  Elec       q    Type
REMARK                         _______ _______ _______ _____ _____    ______ ____
ROOT
ATOM      1  O   HOH     1       1.042   6.267  29.878  0.00  0.00    +0.000 OA
ENDROOT
TORSDOF 0
REMARK  Name = ../refined-set-2016/2xpk/2xpk_pocket.pdb
REMARK  226 active torsions:
REMARK  status: ('A' for Active; 'I' for Inactive)
REMARK    1  A    between atoms: _1  and  _3
REMARK    2  A    between atoms: _3  and  _4
REMARK    3  A    between atoms: _3  and  _6
REMARK    4  A    between atoms: _9  and  _11
REMARK    5  A    between atoms: _11  and  _12
REMARK    6  A    between atoms: _11  and  _14
REMARK    7  A    between atoms: _14  and  _15
REMARK    8  A    between atoms: _15  and  _16
REMARK    9  A    between atoms: _19  and  _21
REMARK   10  A    between atoms: _21  and  _22
REMARK   11  A    between atoms: _24  and  _26
REMARK   12  A    between atoms: _26  and  _27
REMARK   13  A    between atoms: _26  and  _29
REMARK   14  A    between atoms: _29  and  _30
REMARK   15  A    between atoms: _36  and  _38
REMARK   16  A    between atoms: _38  and  _39
REMARK   17  A    between atoms: _38  and  _41
REMARK   18  A    between atoms: _41  and  _42
REMARK   19  A    between atoms: _47  and  _48
REMARK   20  A    between atoms: _50  and  _52
REMARK   21  A    between atoms: _52  and  _53
REMARK   22  A    between atoms: _55  and  _57
REMARK   23  A    between atoms: _57  and  _58
REMARK   24  A    between atoms: _62  and  _63
REMARK   25  A    between atoms: _68  and  _70
REMARK   26  A    between atoms: _70  and  _71
REMARK   27  A    between atoms: _70  and  _73
REMARK   28  A    between atoms: _73  and  _74
REMARK   29  A    between atoms: _74  and  _75
REMARK   30  A    between atoms: _75  and  _76
REMARK   31  A    between atoms: _76  and  _77
REMARK   32  A    between atoms: _81  and  _83
REMARK   33  A    between atoms: _83  and  _84
REMARK   34  A    between atoms: _83  and  _86
REMARK   35  A    between atoms: _86  and  _87
REMARK   36  A    between atoms: _90  and  _92
REMARK   37  A    between atoms: _92  and  _93
REMARK   38  A    between atoms: _92  and  _95
REMARK   39  A    between atoms: _95  and  _96
REMARK   40  A    between atoms: _101  and  _103
REMARK   41  A    between atoms: _103  and  _104
REMARK   42  A    between atoms: _103  and  _106
REMARK   43  A    between atoms: _106  and  _107
REMARK   44  A    between atoms: _107  and  _108
REMARK   45  A    between atoms: _108  and  _109
REMARK   46  A    between atoms: _118  and  _120
REMARK   47  A    between atoms: _120  and  _121
REMARK   48  A    between atoms: _120  and  _123
REMARK   49  A    between atoms: _123  and  _124
REMARK   50  A    between atoms: _126  and  _128
REMARK   51  A    between atoms: _128  and  _129
REMARK   52  A    between atoms: _128  and  _131
REMARK   53  A    between atoms: _131  and  _132
REMARK   54  A    between atoms: _137  and  _138
REMARK   55  A    between atoms: _140  and  _142
REMARK   56  A    between atoms: _142  and  _143
REMARK   57  A    between atoms: _142  and  _145
REMARK   58  A    between atoms: _145  and  _146
REMARK   59  A    between atoms: _156  and  _158
REMARK   60  A    between atoms: _158  and  _159
REMARK   61  A    between atoms: _158  and  _161
REMARK   62  A    between atoms: _161  and  _162
REMARK   63  A    between atoms: _165  and  _167
REMARK   64  A    between atoms: _167  and  _168
REMARK   65  A    between atoms: _167  and  _170
REMARK   66  A    between atoms: _170  and  _171
REMARK   67  A    between atoms: _174  and  _176
REMARK   68  A    between atoms: _176  and  _177
REMARK   69  A    between atoms: _176  and  _179
REMARK   70  A    between atoms: _179  and  _180
REMARK   71  A    between atoms: _183  and  _185
REMARK   72  A    between atoms: _185  and  _186
REMARK   73  A    between atoms: _185  and  _188
REMARK   74  A    between atoms: _188  and  _189
REMARK   75  A    between atoms: _192  and  _194
REMARK   76  A    between atoms: _194  and  _195
REMARK   77  A    between atoms: _194  and  _197
REMARK   78  A    between atoms: _200  and  _201
REMARK   79  A    between atoms: _206  and  _208
REMARK   80  A    between atoms: _208  and  _209
REMARK   81  A    between atoms: _208  and  _211
REMARK   82  A    between atoms: _211  and  _212
REMARK   83  A    between atoms: _215  and  _217
REMARK   84  A    between atoms: _217  and  _218
REMARK   85  A    between atoms: _217  and  _220
REMARK   86  A    between atoms: _220  and  _221
REMARK   87  A    between atoms: _221  and  _222
REMARK   88  A    between atoms: _225  and  _227
REMARK   89  A    between atoms: _227  and  _228
REMARK   90  A    between atoms: _227  and  _230
REMARK   91  A    between atoms: _230  and  _231
REMARK   92  A    between atoms: _236  and  _237
REMARK   93  A    between atoms: _239  and  _241
REMARK   94  A    between atoms: _241  and  _242
REMARK   95  A    between atoms: _241  and  _244
REMARK   96  A    between atoms: _244  and  _245
REMARK   97  A    between atoms: _248  and  _250
REMARK   98  A    between atoms: _250  and  _251
REMARK   99  A    between atoms: _250  and  _253
REMARK  100  A    between atoms: _256  and  _258
REMARK  101  A    between atoms: _258  and  _259
REMARK  102  A    between atoms: _258  and  _261
REMARK  103  A    between atoms: _261  and  _262
REMARK  104  A    between atoms: _262  and  _263
REMARK  105  A    between atoms: _265  and  _267
REMARK  106  A    between atoms: _267  and  _268
REMARK  107  A    between atoms: _267  and  _270
REMARK  108  A    between atoms: _270  and  _271
REMARK  109  A    between atoms: _281  and  _283
REMARK  110  A    between atoms: _283  and  _284
REMARK  111  A    between atoms: _283  and  _286
REMARK  112  A    between atoms: _286  and  _287
REMARK  113  A    between atoms: _290  and  _292
REMARK  114  A    between atoms: _292  and  _293
REMARK  115  A    between atoms: _295  and  _297
REMARK  116  A    between atoms: _297  and  _298
REMARK  117  A    between atoms: _300  and  _302
REMARK  118  A    between atoms: _302  and  _303
REMARK  119  A    between atoms: _302  and  _305
REMARK  120  A    between atoms: _308  and  _310
REMARK  121  A    between atoms: _310  and  _311
REMARK  122  A    between atoms: _310  and  _313
REMARK  123  A    between atoms: _316  and  _318
REMARK  124  A    between atoms: _318  and  _319
REMARK  125  A    between atoms: _322  and  _324
REMARK  126  A    between atoms: _324  and  _325
REMARK  127  A    between atoms: _324  and  _327
REMARK  128  A    between atoms: _330  and  _332
REMARK  129  A    between atoms: _332  and  _333
REMARK  130  A    between atoms: _332  and  _335
REMARK  131  A    between atoms: _335  and  _336
REMARK  132  A    between atoms: _346  and  _348
REMARK  133  A    between atoms: _348  and  _349
REMARK  134  A    between atoms: _348  and  _351
REMARK  135  A    between atoms: _351  and  _352
REMARK  136  A    between atoms: _362  and  _364
REMARK  137  A    between atoms: _364  and  _365
REMARK  138  A    between atoms: _364  and  _367
REMARK  139  A    between atoms: _367  and  _368
REMARK  140  A    between atoms: _373  and  _375
REMARK  141  A    between atoms: _375  and  _376
REMARK  142  A    between atoms: _375  and  _378
REMARK  143  A    between atoms: _378  and  _379
REMARK  144  A    between atoms: _384  and  _385
REMARK  145  A    between atoms: _387  and  _389
REMARK  146  A    between atoms: _389  and  _390
REMARK  147  A    between atoms: _389  and  _392
REMARK  148  A    between atoms: _395  and  _397
REMARK  149  A    between atoms: _397  and  _398
REMARK  150  A    between atoms: _397  and  _400
REMARK  151  A    between atoms: _400  and  _401
REMARK  152  A    between atoms: _404  and  _406
REMARK  153  A    between atoms: _406  and  _407
REMARK  154  A    between atoms: _406  and  _409
REMARK  155  A    between atoms: _409  and  _410
REMARK  156  A    between atoms: _413  and  _415
REMARK  157  A    between atoms: _415  and  _416
REMARK  158  A    between atoms: _415  and  _418
REMARK  159  A    between atoms: _418  and  _419
REMARK  160  A    between atoms: _424  and  _425
REMARK  161  A    between atoms: _427  and  _429
REMARK  162  A    between atoms: _429  and  _430
REMARK  163  A    between atoms: _429  and  _432
REMARK  164  A    between atoms: _432  and  _433
REMARK  165  A    between atoms: _439  and  _441
REMARK  166  A    between atoms: _441  and  _442
REMARK  167  A    between atoms: _441  and  _444
REMARK  168  A    between atoms: _444  and  _445
REMARK  169  A    between atoms: _448  and  _450
REMARK  170  A    between atoms: _450  and  _451
REMARK  171  A    between atoms: _450  and  _453
REMARK  172  A    between atoms: _453  and  _454
REMARK  173  A    between atoms: _460  and  _461
REMARK  174  A    between atoms: _466  and  _468
REMARK  175  A    between atoms: _468  and  _469
REMARK  176  A    between atoms: _468  and  _471
REMARK  177  A    between atoms: _471  and  _472
REMARK  178  A    between atoms: _477  and  _479
REMARK  179  A    between atoms: _479  and  _480
REMARK  180  A    between atoms: _479  and  _482
REMARK  181  A    between atoms: _482  and  _483
REMARK  182  A    between atoms: _493  and  _495
REMARK  183  A    between atoms: _495  and  _496
REMARK  184  A    between atoms: _499  and  _501
REMARK  185  A    between atoms: _501  and  _502
REMARK  186  A    between atoms: _501  and  _504
REMARK  187  A    between atoms: _504  and  _505
REMARK  188  A    between atoms: _508  and  _510
REMARK  189  A    between atoms: _510  and  _511
REMARK  190  A    between atoms: _510  and  _513
REMARK  191  A    between atoms: _513  and  _514
REMARK  192  A    between atoms: _516  and  _518
REMARK  193  A    between atoms: _518  and  _519
REMARK  194  A    between atoms: _518  and  _521
REMARK  195  A    between atoms: _521  and  _522
REMARK  196  A    between atoms: _524  and  _526
REMARK  197  A    between atoms: _526  and  _527
REMARK  198  A    between atoms: _526  and  _529
REMARK  199  A    between atoms: _529  and  _530
REMARK  200  A    between atoms: _530  and  _531
REMARK  201  A    between atoms: _531  and  _532
REMARK  202  A    between atoms: _532  and  _533
REMARK  203  A    between atoms: _537  and  _539
REMARK  204  A    between atoms: _539  and  _540
REMARK  205  A    between atoms: _539  and  _542
REMARK  206  A    between atoms: _542  and  _543
REMARK  207  A    between atoms: _549  and  _551
REMARK  208  A    between atoms: _551  and  _552
REMARK  209  A    between atoms: _551  and  _554
REMARK  210  A    between atoms: _554  and  _555
REMARK  211  A    between atoms: _558  and  _560
REMARK  212  A    between atoms: _560  and  _561
REMARK  213  A    between atoms: _560  and  _563
REMARK  214  A    between atoms: _563  and  _564
REMARK  215  A    between atoms: _567  and  _569
REMARK  216  A    between atoms: _569  and  _570
REMARK  217  A    between atoms: _569  and  _572
REMARK  218  A    between atoms: _572  and  _573
REMARK  219  A    between atoms: _576  and  _578
REMARK  220  A    between atoms: _578  and  _579
REMARK  221  A    between atoms: _578  and  _581
REMARK  222  A    between atoms: _581  and  _582
REMARK  223  A    between atoms: _585  and  _587
REMARK  224  A    between atoms: _587  and  _588
REMARK  225  A    between atoms: _587  and  _590
REMARK  226  A    between atoms: _590  and  _591
REMARK                            x       y       z     vdW  Elec       q    Type
REMARK                         _______ _______ _______ _____ _____    ______ ____
ROOT
ATOM      1  O   HOH     1       2.062  10.064  19.630  0.00  0.00    +0.000 OA
ENDROOT
TORSDOF 0
REMARK  Name = ../refined-set-2016/2xpk/2xpk_pocket.pdb
REMARK  226 active torsions:
REMARK  status: ('A' for Active; 'I' for Inactive)
REMARK    1  A    between atoms: _1  and  _3
REMARK    2  A    between atoms: _3  and  _4
REMARK    3  A    between atoms: _3  and  _6
REMARK    4  A    between atoms: _9  and  _11
REMARK    5  A    between atoms: _11  and  _12
REMARK    6  A    between atoms: _11  and  _14
REMARK    7  A    between atoms: _14  and  _15
REMARK    8  A    between atoms: _15  and  _16
REMARK    9  A    between atoms: _19  and  _21
REMARK   10  A    between atoms: _21  and  _22
REMARK   11  A    between atoms: _24  and  _26
REMARK   12  A    between atoms: _26  and  _27
REMARK   13  A    between atoms: _26  and  _29
REMARK   14  A    between atoms: _29  and  _30
REMARK   15  A    between atoms: _36  and  _38
REMARK   16  A    between atoms: _38  and  _39
REMARK   17  A    between atoms: _38  and  _41
REMARK   18  A    between atoms: _41  and  _42
REMARK   19  A    between atoms: _47  and  _48
REMARK   20  A    between atoms: _50  and  _52
REMARK   21  A    between atoms: _52  and  _53
REMARK   22  A    between atoms: _55  and  _57
REMARK   23  A    between atoms: _57  and  _58
REMARK   24  A    between atoms: _62  and  _63
REMARK   25  A    between atoms: _68  and  _70
REMARK   26  A    between atoms: _70  and  _71
REMARK   27  A    between atoms: _70  and  _73
REMARK   28  A    between atoms: _73  and  _74
REMARK   29  A    between atoms: _74  and  _75
REMARK   30  A    between atoms: _75  and  _76
REMARK   31  A    between atoms: _76  and  _77
REMARK   32  A    between atoms: _81  and  _83
REMARK   33  A    between atoms: _83  and  _84
REMARK   34  A    between atoms: _83  and  _86
REMARK   35  A    between atoms: _86  and  _87
REMARK   36  A    between atoms: _90  and  _92
REMARK   37  A    between atoms: _92  and  _93
REMARK   38  A    between atoms: _92  and  _95
REMARK   39  A    between atoms: _95  and  _96
REMARK   40  A    between atoms: _101  and  _103
REMARK   41  A    between atoms: _103  and  _104
REMARK   42  A    between atoms: _103  and  _106
REMARK   43  A    between atoms: _106  and  _107
REMARK   44  A    between atoms: _107  and  _108
REMARK   45  A    between atoms: _108  and  _109
REMARK   46  A    between atoms: _118  and  _120
REMARK   47  A    between atoms: _120  and  _121
REMARK   48  A    between atoms: _120  and  _123
REMARK   49  A    between atoms: _123  and  _124
REMARK   50  A    between atoms: _126  and  _128
REMARK   51  A    between atoms: _128  and  _129
REMARK   52  A    between atoms: _128  and  _131
REMARK   53  A    between atoms: _131  and  _132
REMARK   54  A    between atoms: _137  and  _138
REMARK   55  A    between atoms: _140  and  _142
REMARK   56  A    between atoms: _142  and  _143
REMARK   57  A    between atoms: _142  and  _145
REMARK   58  A    between atoms: _145  and  _146
REMARK   59  A    between atoms: _156  and  _158
REMARK   60  A    between atoms: _158  and  _159
REMARK   61  A    between atoms: _158  and  _161
REMARK   62  A    between atoms: _161  and  _162
REMARK   63  A    between atoms: _165  and  _167
REMARK   64  A    between atoms: _167  and  _168
REMARK   65  A    between atoms: _167  and  _170
REMARK   66  A    between atoms: _170  and  _171
REMARK   67  A    between atoms: _174  and  _176
REMARK   68  A    between atoms: _176  and  _177
REMARK   69  A    between atoms: _176  and  _179
REMARK   70  A    between atoms: _179  and  _180
REMARK   71  A    between atoms: _183  and  _185
REMARK   72  A    between atoms: _185  and  _186
REMARK   73  A    between atoms: _185  and  _188
REMARK   74  A    between atoms: _188  and  _189
REMARK   75  A    between atoms: _192  and  _194
REMARK   76  A    between atoms: _194  and  _195
REMARK   77  A    between atoms: _194  and  _197
REMARK   78  A    between atoms: _200  and  _201
REMARK   79  A    between atoms: _206  and  _208
REMARK   80  A    between atoms: _208  and  _209
REMARK   81  A    between atoms: _208  and  _211
REMARK   82  A    between atoms: _211  and  _212
REMARK   83  A    between atoms: _215  and  _217
REMARK   84  A    between atoms: _217  and  _218
REMARK   85  A    between atoms: _217  and  _220
REMARK   86  A    between atoms: _220  and  _221
REMARK   87  A    between atoms: _221  and  _222
REMARK   88  A    between atoms: _225  and  _227
REMARK   89  A    between atoms: _227  and  _228
REMARK   90  A    between atoms: _227  and  _230
REMARK   91  A    between atoms: _230  and  _231
REMARK   92  A    between atoms: _236  and  _237
REMARK   93  A    between atoms: _239  and  _241
REMARK   94  A    between atoms: _241  and  _242
REMARK   95  A    between atoms: _241  and  _244
REMARK   96  A    between atoms: _244  and  _245
REMARK   97  A    between atoms: _248  and  _250
REMARK   98  A    between atoms: _250  and  _251
REMARK   99  A    between atoms: _250  and  _253
REMARK  100  A    between atoms: _256  and  _258
REMARK  101  A    between atoms: _258  and  _259
REMARK  102  A    between atoms: _258  and  _261
REMARK  103  A    between atoms: _261  and  _262
REMARK  104  A    between atoms: _262  and  _263
REMARK  105  A    between atoms: _265  and  _267
REMARK  106  A    between atoms: _267  and  _268
REMARK  107  A    between atoms: _267  and  _270
REMARK  108  A    between atoms: _270  and  _271
REMARK  109  A    between atoms: _281  and  _283
REMARK  110  A    between atoms: _283  and  _284
REMARK  111  A    between atoms: _283  and  _286
REMARK  112  A    between atoms: _286  and  _287
REMARK  113  A    between atoms: _290  and  _292
REMARK  114  A    between atoms: _292  and  _293
REMARK  115  A    between atoms: _295  and  _297
REMARK  116  A    between atoms: _297  and  _298
REMARK  117  A    between atoms: _300  and  _302
REMARK  118  A    between atoms: _302  and  _303
REMARK  119  A    between atoms: _302  and  _305
REMARK  120  A    between atoms: _308  and  _310
REMARK  121  A    between atoms: _310  and  _311
REMARK  122  A    between atoms: _310  and  _313
REMARK  123  A    between atoms: _316  and  _318
REMARK  124  A    between atoms: _318  and  _319
REMARK  125  A    between atoms: _322  and  _324
REMARK  126  A    between atoms: _324  and  _325
REMARK  127  A    between atoms: _324  and  _327
REMARK  128  A    between atoms: _330  and  _332
REMARK  129  A    between atoms: _332  and  _333
REMARK  130  A    between atoms: _332  and  _335
REMARK  131  A    between atoms: _335  and  _336
REMARK  132  A    between atoms: _346  and  _348
REMARK  133  A    between atoms: _348  and  _349
REMARK  134  A    between atoms: _348  and  _351
REMARK  135  A    between atoms: _351  and  _352
REMARK  136  A    between atoms: _362  and  _364
REMARK  137  A    between atoms: _364  and  _365
REMARK  138  A    between atoms: _364  and  _367
REMARK  139  A    between atoms: _367  and  _368
REMARK  140  A    between atoms: _373  and  _375
REMARK  141  A    between atoms: _375  and  _376
REMARK  142  A    between atoms: _375  and  _378
REMARK  143  A    between atoms: _378  and  _379
REMARK  144  A    between atoms: _384  and  _385
REMARK  145  A    between atoms: _387  and  _389
REMARK  146  A    between atoms: _389  and  _390
REMARK  147  A    between atoms: _389  and  _392
REMARK  148  A    between atoms: _395  and  _397
REMARK  149  A    between atoms: _397  and  _398
REMARK  150  A    between atoms: _397  and  _400
REMARK  151  A    between atoms: _400  and  _401
REMARK  152  A    between atoms: _404  and  _406
REMARK  153  A    between atoms: _406  and  _407
REMARK  154  A    between atoms: _406  and  _409
REMARK  155  A    between atoms: _409  and  _410
REMARK  156  A    between atoms: _413  and  _415
REMARK  157  A    between atoms: _415  and  _416
REMARK  158  A    between atoms: _415  and  _418
REMARK  159  A    between atoms: _418  and  _419
REMARK  160  A    between atoms: _424  and  _425
REMARK  161  A    between atoms: _427  and  _429
REMARK  162  A    between atoms: _429  and  _430
REMARK  163  A    between atoms: _429  and  _432
REMARK  164  A    between atoms: _432  and  _433
REMARK  165  A    between atoms: _439  and  _441
REMARK  166  A    between atoms: _441  and  _442
REMARK  167  A    between atoms: _441  and  _444
REMARK  168  A    between atoms: _444  and  _445
REMARK  169  A    between atoms: _448  and  _450
REMARK  170  A    between atoms: _450  and  _451
REMARK  171  A    between atoms: _450  and  _453
REMARK  172  A    between atoms: _453  and  _454
REMARK  173  A    between atoms: _460  and  _461
REMARK  174  A    between atoms: _466  and  _468
REMARK  175  A    between atoms: _468  and  _469
REMARK  176  A    between atoms: _468  and  _471
REMARK  177  A    between atoms: _471  and  _472
REMARK  178  A    between atoms: _477  and  _479
REMARK  179  A    between atoms: _479  and  _480
REMARK  180  A    between atoms: _479  and  _482
REMARK  181  A    between atoms: _482  and  _483
REMARK  182  A    between atoms: _493  and  _495
REMARK  183  A    between atoms: _495  and  _496
REMARK  184  A    between atoms: _499  and  _501
REMARK  185  A    between atoms: _501  and  _502
REMARK  186  A    between atoms: _501  and  _504
REMARK  187  A    between atoms: _504  and  _505
REMARK  188  A    between atoms: _508  and  _510
REMARK  189  A    between atoms: _510  and  _511
REMARK  190  A    between atoms: _510  and  _513
REMARK  191  A    between atoms: _513  and  _514
REMARK  192  A    between atoms: _516  and  _518
REMARK  193  A    between atoms: _518  and  _519
REMARK  194  A    between atoms: _518  and  _521
REMARK  195  A    between atoms: _521  and  _522
REMARK  196  A    between atoms: _524  and  _526
REMARK  197  A    between atoms: _526  and  _527
REMARK  198  A    between atoms: _526  and  _529
REMARK  199  A    between atoms: _529  and  _530
REMARK  200  A    between atoms: _530  and  _531
REMARK  201  A    between atoms: _531  and  _532
REMARK  202  A    between atoms: _532  and  _533
REMARK  203  A    between atoms: _537  and  _539
REMARK  204  A    between atoms: _539  and  _540
REMARK  205  A    between atoms: _539  and  _542
REMARK  206  A    between atoms: _542  and  _543
REMARK  207  A    between atoms: _549  and  _551
REMARK  208  A    between atoms: _551  and  _552
REMARK  209  A    between atoms: _551  and  _554
REMARK  210  A    between atoms: _554  and  _555
REMARK  211  A    between atoms: _558  and  _560
REMARK  212  A    between atoms: _560  and  _561
REMARK  213  A    between atoms: _560  and  _563
REMARK  214  A    between atoms: _563  and  _564
REMARK  215  A    between atoms: _567  and  _569
REMARK  216  A    between atoms: _569  and  _570
REMARK  217  A    between atoms: _569  and  _572
REMARK  218  A    between atoms: _572  and  _573
REMARK  219  A    between atoms: _576  and  _578
REMARK  220  A    between atoms: _578  and  _579
REMARK  221  A    between atoms: _578  and  _581
REMARK  222  A    between atoms: _581  and  _582
REMARK  223  A    between atoms: _585  and  _587
REMARK  224  A    between atoms: _587  and  _588
REMARK  225  A    between atoms: _587  and  _590
REMARK  226  A    between atoms: _590  and  _591
REMARK                            x       y       z     vdW  Elec       q    Type
REMARK                         _______ _______ _______ _____ _____    ______ ____
ROOT
ATOM      1  O   HOH     1      -2.570   7.247  22.904  0.00  0.00    +0.000 OA
ENDROOT
TORSDOF 0
