REMARK  Name = ../refined-set-2016/1ceb/1ceb_pocket.pdb
REMARK  96 active torsions:
REMARK  status: ('A' for Active; 'I' for Inactive)
REMARK    1  A    between atoms: _1  and  _3
REMARK    2  A    between atoms: _3  and  _4
REMARK    3  A    between atoms: _3  and  _6
REMARK    4  A    between atoms: _6  and  _7
REMARK    5  A    between atoms: _17  and  _19
REMARK    6  A    between atoms: _19  and  _20
REMARK    7  A    between atoms: _19  and  _22
REMARK    8  A    between atoms: _22  and  _23
REMARK    9  A    between atoms: _28  and  _30
REMARK   10  A    between atoms: _30  and  _31
REMARK   11  A    between atoms: _30  and  _33
REMARK   12  A    between atoms: _33  and  _34
REMARK   13  A    between atoms: _34  and  _35
REMARK   14  A    between atoms: _35  and  _36
REMARK   15  A    between atoms: _46  and  _47
REMARK   16  A    between atoms: _52  and  _54
REMARK   17  A    between atoms: _54  and  _55
REMARK   18  A    between atoms: _54  and  _57
REMARK   19  A    between atoms: _57  and  _58
REMARK   20  A    between atoms: _58  and  _59
REMARK   21  A    between atoms: _59  and  _60
REMARK   22  A    between atoms: _69  and  _71
REMARK   23  A    between atoms: _71  and  _72
REMARK   24  A    between atoms: _71  and  _74
REMARK   25  A    between atoms: _74  and  _75
REMARK   26  A    between atoms: _81  and  _83
REMARK   27  A    between atoms: _83  and  _84
REMARK   28  A    between atoms: _83  and  _86
REMARK   29  A    between atoms: _86  and  _87
REMARK   30  A    between atoms: _89  and  _91
REMARK   31  A    between atoms: _91  and  _92
REMARK   32  A    between atoms: _91  and  _94
REMARK   33  A    between atoms: _94  and  _95
REMARK   34  A    between atoms: _100  and  _102
REMARK   35  A    between atoms: _102  and  _103
REMARK   36  A    between atoms: _102  and  _105
REMARK   37  A    between atoms: _105  and  _106
REMARK   38  A    between atoms: _106  and  _107
REMARK   39  A    between atoms: _107  and  _108
REMARK   40  A    between atoms: _117  and  _119
REMARK   41  A    between atoms: _119  and  _120
REMARK   42  A    between atoms: _119  and  _122
REMARK   43  A    between atoms: _122  and  _123
REMARK   44  A    between atoms: _129  and  _130
REMARK   45  A    between atoms: _135  and  _137
REMARK   46  A    between atoms: _137  and  _138
REMARK   47  A    between atoms: _137  and  _140
REMARK   48  A    between atoms: _140  and  _141
REMARK   49  A    between atoms: _144  and  _146
REMARK   50  A    between atoms: _146  and  _147
REMARK   51  A    between atoms: _146  and  _149
REMARK   52  A    between atoms: _149  and  _150
REMARK   53  A    between atoms: _155  and  _157
REMARK   54  A    between atoms: _157  and  _158
REMARK   55  A    between atoms: _157  and  _160
REMARK   56  A    between atoms: _160  and  _161
REMARK   57  A    between atoms: _165  and  _166
REMARK   58  A    between atoms: _171  and  _173
REMARK   59  A    between atoms: _173  and  _174
REMARK   60  A    between atoms: _173  and  _176
REMARK   61  A    between atoms: _176  and  _177
REMARK   62  A    between atoms: _177  and  _178
REMARK   63  A    between atoms: _183  and  _185
REMARK   64  A    between atoms: _185  and  _186
REMARK   65  A    between atoms: _188  and  _190
REMARK   66  A    between atoms: _190  and  _191
REMARK   67  A    between atoms: _190  and  _193
REMARK   68  A    between atoms: _193  and  _194
REMARK   69  A    between atoms: _204  and  _206
REMARK   70  A    between atoms: _206  and  _207
REMARK   71  A    between atoms: _206  and  _209
REMARK   72  A    between atoms: _211  and  _213
REMARK   73  A    between atoms: _213  and  _214
REMARK   74  A    between atoms: _213  and  _216
REMARK   75  A    between atoms: _216  and  _217
REMARK   76  A    between atoms: _222  and  _223
REMARK   77  A    between atoms: _225  and  _227
REMARK   78  A    between atoms: _227  and  _228
REMARK   79  A    between atoms: _227  and  _230
REMARK   80  A    between atoms: _230  and  _231
REMARK   81  A    between atoms: _231  and  _232
REMARK   82  A    between atoms: _232  and  _233
REMARK   83  A    between atoms: _242  and  _244
REMARK   84  A    between atoms: _244  and  _245
REMARK   85  A    between atoms: _244  and  _247
REMARK   86  A    between atoms: _247  and  _248
REMARK   87  A    between atoms: _253  and  _254
REMARK   88  A    between atoms: _256  and  _258
REMARK   89  A    between atoms: _258  and  _259
REMARK   90  A    between atoms: _258  and  _261
REMARK   91  A    between atoms: _261  and  _262
REMARK   92  A    between atoms: _265  and  _267
REMARK   93  A    between atoms: _267  and  _268
REMARK   94  A    between atoms: _267  and  _270
REMARK   95  A    between atoms: _270  and  _271
REMARK   96  A    between atoms: _276  and  _277
REMARK                            x       y       z     vdW  Elec       q    Type
REMARK                         _______ _______ _______ _____ _____    ______ ____
ROOT
ATOM      1  CG  TRP A   1      19.520  -6.987  30.406  0.00  0.00    -0.002 A 
ATOM      2  CD2 TRP A   1      19.435  -6.071  31.511  0.00  0.00    +0.013 A 
ATOM      3  CE3 TRP A   1      19.884  -6.078  32.822  0.00  0.00    +0.001 A 
ATOM      4  CZ3 TRP A   1      19.503  -5.092  33.720  0.00  0.00    +0.000 A 
ATOM      5  CH2 TRP A   1      18.622  -4.083  33.299  0.00  0.00    +0.001 A 
ATOM      6  CZ2 TRP A   1      18.277  -3.965  31.963  0.00  0.00    +0.017 A 
ATOM      7  CE2 TRP A   1      18.646  -4.975  31.087  0.00  0.00    +0.056 A 
ATOM      8  NE1 TRP A   1      18.309  -5.203  29.766  0.00  0.00    -0.352 N 
ATOM      9  HE1 TRP A   1      17.702  -4.588  29.187  0.00  0.00    +0.166 HD
ATOM     10  CD1 TRP A   1      18.902  -6.372  29.332  0.00  0.00    +0.068 A 
ENDROOT
BRANCH   1  11
ATOM     11  CB  TRP A   1      20.197  -8.316  30.389  0.00  0.00    +0.053 C 
BRANCH  11  12
ATOM     12  CA  TRP A   1      21.684  -8.245  30.188  0.00  0.00    +0.137 C 
BRANCH  12  13
ATOM     13  N   TRP A   1      21.975  -7.534  28.948  0.00  0.00    -0.239 NA
ATOM     14  H   TRP A   1      21.230  -7.391  28.236  0.00  0.00    +0.142 HD
ENDBRANCH  12  13
BRANCH  12  15
ATOM     15  C   TRP A   1      22.399  -9.596  30.236  0.00  0.00    +0.224 C 
ATOM     16  O   TRP A   1      22.733 -10.011  31.364  0.00  0.00    -0.287 OA
ENDBRANCH  12  15
ENDBRANCH  11  12
ENDBRANCH   1  11
TORSDOF 4
REMARK  Name = ../refined-set-2016/1ceb/1ceb_pocket.pdb
REMARK  96 active torsions:
REMARK  status: ('A' for Active; 'I' for Inactive)
REMARK    1  A    between atoms: _1  and  _3
REMARK    2  A    between atoms: _3  and  _4
REMARK    3  A    between atoms: _3  and  _6
REMARK    4  A    between atoms: _6  and  _7
REMARK    5  A    between atoms: _17  and  _19
REMARK    6  A    between atoms: _19  and  _20
REMARK    7  A    between atoms: _19  and  _22
REMARK    8  A    between atoms: _22  and  _23
REMARK    9  A    between atoms: _28  and  _30
REMARK   10  A    between atoms: _30  and  _31
REMARK   11  A    between atoms: _30  and  _33
REMARK   12  A    between atoms: _33  and  _34
REMARK   13  A    between atoms: _34  and  _35
REMARK   14  A    between atoms: _35  and  _36
REMARK   15  A    between atoms: _46  and  _47
REMARK   16  A    between atoms: _52  and  _54
REMARK   17  A    between atoms: _54  and  _55
REMARK   18  A    between atoms: _54  and  _57
REMARK   19  A    between atoms: _57  and  _58
REMARK   20  A    between atoms: _58  and  _59
REMARK   21  A    between atoms: _59  and  _60
REMARK   22  A    between atoms: _69  and  _71
REMARK   23  A    between atoms: _71  and  _72
REMARK   24  A    between atoms: _71  and  _74
REMARK   25  A    between atoms: _74  and  _75
REMARK   26  A    between atoms: _81  and  _83
REMARK   27  A    between atoms: _83  and  _84
REMARK   28  A    between atoms: _83  and  _86
REMARK   29  A    between atoms: _86  and  _87
REMARK   30  A    between atoms: _89  and  _91
REMARK   31  A    between atoms: _91  and  _92
REMARK   32  A    between atoms: _91  and  _94
REMARK   33  A    between atoms: _94  and  _95
REMARK   34  A    between atoms: _100  and  _102
REMARK   35  A    between atoms: _102  and  _103
REMARK   36  A    between atoms: _102  and  _105
REMARK   37  A    between atoms: _105  and  _106
REMARK   38  A    between atoms: _106  and  _107
REMARK   39  A    between atoms: _107  and  _108
REMARK   40  A    between atoms: _117  and  _119
REMARK   41  A    between atoms: _119  and  _120
REMARK   42  A    between atoms: _119  and  _122
REMARK   43  A    between atoms: _122  and  _123
REMARK   44  A    between atoms: _129  and  _130
REMARK   45  A    between atoms: _135  and  _137
REMARK   46  A    between atoms: _137  and  _138
REMARK   47  A    between atoms: _137  and  _140
REMARK   48  A    between atoms: _140  and  _141
REMARK   49  A    between atoms: _144  and  _146
REMARK   50  A    between atoms: _146  and  _147
REMARK   51  A    between atoms: _146  and  _149
REMARK   52  A    between atoms: _149  and  _150
REMARK   53  A    between atoms: _155  and  _157
REMARK   54  A    between atoms: _157  and  _158
REMARK   55  A    between atoms: _157  and  _160
REMARK   56  A    between atoms: _160  and  _161
REMARK   57  A    between atoms: _165  and  _166
REMARK   58  A    between atoms: _171  and  _173
REMARK   59  A    between atoms: _173  and  _174
REMARK   60  A    between atoms: _173  and  _176
REMARK   61  A    between atoms: _176  and  _177
REMARK   62  A    between atoms: _177  and  _178
REMARK   63  A    between atoms: _183  and  _185
REMARK   64  A    between atoms: _185  and  _186
REMARK   65  A    between atoms: _188  and  _190
REMARK   66  A    between atoms: _190  and  _191
REMARK   67  A    between atoms: _190  and  _193
REMARK   68  A    between atoms: _193  and  _194
REMARK   69  A    between atoms: _204  and  _206
REMARK   70  A    between atoms: _206  and  _207
REMARK   71  A    between atoms: _206  and  _209
REMARK   72  A    between atoms: _211  and  _213
REMARK   73  A    between atoms: _213  and  _214
REMARK   74  A    between atoms: _213  and  _216
REMARK   75  A    between atoms: _216  and  _217
REMARK   76  A    between atoms: _222  and  _223
REMARK   77  A    between atoms: _225  and  _227
REMARK   78  A    between atoms: _227  and  _228
REMARK   79  A    between atoms: _227  and  _230
REMARK   80  A    between atoms: _230  and  _231
REMARK   81  A    between atoms: _231  and  _232
REMARK   82  A    between atoms: _232  and  _233
REMARK   83  A    between atoms: _242  and  _244
REMARK   84  A    between atoms: _244  and  _245
REMARK   85  A    between atoms: _244  and  _247
REMARK   86  A    between atoms: _247  and  _248
REMARK   87  A    between atoms: _253  and  _254
REMARK   88  A    between atoms: _256  and  _258
REMARK   89  A    between atoms: _258  and  _259
REMARK   90  A    between atoms: _258  and  _261
REMARK   91  A    between atoms: _261  and  _262
REMARK   92  A    between atoms: _265  and  _267
REMARK   93  A    between atoms: _267  and  _268
REMARK   94  A    between atoms: _267  and  _270
REMARK   95  A    between atoms: _270  and  _271
REMARK   96  A    between atoms: _276  and  _277
REMARK                            x       y       z     vdW  Elec       q    Type
REMARK                         _______ _______ _______ _____ _____    ______ ____
ROOT
ATOM      1  C   PRO A   3      24.810  -9.327  37.280  0.00  0.00    +0.242 C 
ATOM      2  N   ARG A   4      24.155  -8.660  38.223  0.00  0.00    -0.297 N 
ATOM      3  H   ARG A   4      24.180  -7.621  38.258  0.00  0.00    +0.150 HD
ATOM      4  O   PRO A   3      24.992 -10.529  37.153  0.00  0.00    -0.273 OA
ENDROOT
BRANCH   1   8
ATOM      5  C   ARG A   2      27.855  -8.528  36.348  0.00  0.00    +0.248 C 
ATOM      6  O   ARG A   2      27.952  -8.114  37.514  0.00  0.00    -0.273 OA
ATOM      7  N   PRO A   3      26.723  -8.768  35.703  0.00  0.00    -0.249 N 
ATOM      8  CA  PRO A   3      25.422  -8.413  36.240  0.00  0.00    +0.160 C 
ATOM      9  CB  PRO A   3      24.418  -8.367  35.084  0.00  0.00    +0.057 C 
ATOM     10  CG  PRO A   3      25.163  -8.825  33.879  0.00  0.00    -0.008 C 
ATOM     11  CD  PRO A   3      26.601  -9.129  34.285  0.00  0.00    +0.063 C 
BRANCH   5  12
ATOM     12  CA  ARG A   2      29.113  -8.793  35.535  0.00  0.00    +0.149 C 
BRANCH  12  14
ATOM     13  C   HIS A   1      29.481  -6.816  34.266  0.00  0.00    +0.239 C 
ATOM     14  N   ARG A   2      29.739  -7.446  35.405  0.00  0.00    -0.297 N 
ATOM     15  H   ARG A   2      30.333  -7.031  36.151  0.00  0.00    +0.150 HD
ATOM     16  O   HIS A   1      28.884  -7.361  33.296  0.00  0.00    -0.274 OA
BRANCH  13  17
ATOM     17  CA  HIS A   1      30.037  -5.383  34.182  0.00  0.00    +0.151 C 
BRANCH  17  18
ATOM     18  N   HIS A   1      30.583  -5.055  32.891  0.00  0.00    -0.238 NA
ATOM     19  H   HIS A   1      29.940  -5.156  32.080  0.00  0.00    +0.142 HD
ENDBRANCH  17  18
BRANCH  17  20
ATOM     20  CB  HIS A   1      28.836  -4.449  34.602  0.00  0.00    +0.074 C 
BRANCH  20  21
ATOM     21  CG  HIS A   1      29.339  -3.057  34.891  0.00  0.00    +0.082 A 
ATOM     22  CD2 HIS A   1      30.259  -2.672  35.829  0.00  0.00    +0.115 A 
ATOM     23  NE2 HIS A   1      30.498  -1.346  35.639  0.00  0.00    -0.221 NA
ATOM     24  CE1 HIS A   1      29.834  -0.963  34.555  0.00  0.00    +0.199 A 
ATOM     25  ND1 HIS A   1      29.012  -1.931  34.164  0.00  0.00    -0.227 NA
ENDBRANCH  20  21
ENDBRANCH  17  20
ENDBRANCH  13  17
ENDBRANCH  12  14
BRANCH  12  26
ATOM     26  CB  ARG A   2      30.010  -9.959  35.946  0.00  0.00    +0.033 C 
BRANCH  26  27
ATOM     27  CG  ARG A   2      29.686 -11.096  34.930  0.00  0.00    +0.045 C 
BRANCH  27  28
ATOM     28  CD  ARG A   2      29.643 -12.477  35.465  0.00  0.00    +0.174 C 
BRANCH  28  29
ATOM     29  NE  ARG A   2      30.895 -13.010  35.979  0.00  0.00    -0.265 N 
ATOM     30  HE  ARG A   2      31.004 -12.946  37.011  0.00  0.00    +0.259 HD
ATOM     31  CZ  ARG A   2      31.934 -13.572  35.338  0.00  0.00    +0.342 C 
ATOM     32  NH2 ARG A   2      33.022 -13.996  36.025  0.00  0.00    -0.292 N 
ATOM     33 HH21 ARG A   2      33.059 -13.888  37.059  0.00  0.00    +0.255 HD
ATOM     34 HH22 ARG A   2      33.820 -14.429  35.519  0.00  0.00    +0.255 HD
ATOM     35  NH1 ARG A   2      31.979 -13.731  34.017  0.00  0.00    -0.292 N 
ATOM     36 HH11 ARG A   2      32.810 -14.173  33.574  0.00  0.00    +0.255 HD
ATOM     37 HH12 ARG A   2      31.183 -13.413  33.428  0.00  0.00    +0.255 HD
ENDBRANCH  28  29
ENDBRANCH  27  28
ENDBRANCH  26  27
ENDBRANCH  12  26
ENDBRANCH   5  12
ENDBRANCH   1   8
BRANCH   2  38
ATOM     38  CA  ARG A   4      23.386  -9.439  39.226  0.00  0.00    +0.149 C 
BRANCH  38  39
ATOM     39  C   ARG A   4      21.993  -9.764  38.697  0.00  0.00    +0.241 C 
ATOM     40  O   ARG A   4      21.328 -10.699  39.191  0.00  0.00    -0.273 OA
ATOM     41  N   PHE A   5      21.533  -8.923  37.755  0.00  0.00    -0.297 N 
ATOM     42  H   PHE A   5      22.092  -8.096  37.464  0.00  0.00    +0.150 HD
BRANCH  41  43
ATOM     43  CA  PHE A   5      20.223  -9.196  37.144  0.00  0.00    +0.153 C 
BRANCH  43  44
ATOM     44  C   PHE A   5      20.589  -9.559  35.669  0.00  0.00    +0.241 C 
ATOM     45  N   SER A   6      19.909 -10.619  35.231  0.00  0.00    -0.296 N 
ATOM     46  H   SER A   6      19.202 -11.030  35.874  0.00  0.00    +0.150 HD
ATOM     47  O   PHE A   5      21.348  -8.813  35.038  0.00  0.00    -0.273 OA
BRANCH  45  48
ATOM     48  CA  SER A   6      20.072 -11.246  33.936  0.00  0.00    +0.166 C 
BRANCH  48  49
ATOM     49  C   SER A   6      18.961 -12.265  33.604  0.00  0.00    +0.229 C 
ATOM     50  O   SER A   6      18.090 -12.659  34.374  0.00  0.00    -0.286 OA
ENDBRANCH  48  49
BRANCH  48  51
ATOM     51  CB  SER A   6      21.438 -11.998  33.830  0.00  0.00    +0.165 C 
BRANCH  51  52
ATOM     52  OG  SER A   6      21.200 -13.387  34.031  0.00  0.00    -0.380 OA
ATOM     53  H   SER A   6      22.056 -13.880  33.967  0.00  0.00    +0.211 HD
ENDBRANCH  51  52
ENDBRANCH  48  51
ENDBRANCH  45  48
ENDBRANCH  43  44
BRANCH  43  54
ATOM     54  CB  PHE A   5      19.117  -8.170  37.292  0.00  0.00    +0.055 C 
BRANCH  54  55
ATOM     55  CG  PHE A   5      18.507  -7.929  38.634  0.00  0.00    -0.020 A 
ATOM     56  CD2 PHE A   5      19.230  -7.269  39.621  0.00  0.00    -0.004 A 
ATOM     57  CE2 PHE A   5      18.689  -7.034  40.901  0.00  0.00    -0.000 A 
ATOM     58  CZ  PHE A   5      17.360  -7.408  41.104  0.00  0.00    -0.000 A 
ATOM     59  CE1 PHE A   5      16.608  -8.095  40.125  0.00  0.00    -0.000 A 
ATOM     60  CD1 PHE A   5      17.197  -8.303  38.886  0.00  0.00    -0.004 A 
ENDBRANCH  54  55
ENDBRANCH  43  54
ENDBRANCH  41  43
ENDBRANCH  38  39
BRANCH  38  61
ATOM     61  CB  ARG A   4      23.435  -8.793  40.603  0.00  0.00    +0.033 C 
BRANCH  61  62
ATOM     62  CG  ARG A   4      24.586  -9.434  41.401  0.00  0.00    +0.045 C 
BRANCH  62  63
ATOM     63  CD  ARG A   4      24.809  -8.740  42.713  0.00  0.00    +0.174 C 
BRANCH  63  64
ATOM     64  NE  ARG A   4      25.206  -7.358  42.456  0.00  0.00    -0.265 N 
ATOM     65  CZ  ARG A   4      25.355  -6.446  43.423  0.00  0.00    +0.342 C 
ATOM     66  NH2 ARG A   4      25.160  -6.740  44.705  0.00  0.00    -0.292 N 
ATOM     67 HH21 ARG A   4      25.285  -6.006  45.432  0.00  0.00    +0.255 HD
ATOM     68 HH22 ARG A   4      24.883  -7.704  44.981  0.00  0.00    +0.255 HD
ATOM     69  NH1 ARG A   4      25.635  -5.188  43.083  0.00  0.00    -0.292 N 
ATOM     70 HH11 ARG A   4      25.755  -4.464  43.820  0.00  0.00    +0.255 HD
ATOM     71 HH12 ARG A   4      25.734  -4.930  42.080  0.00  0.00    +0.255 HD
ATOM     72  HE  ARG A   4      25.381  -7.069  41.473  0.00  0.00    +0.259 HD
ENDBRANCH  63  64
ENDBRANCH  62  63
ENDBRANCH  61  62
ENDBRANCH  38  61
ENDBRANCH   2  38
TORSDOF 25
REMARK  Name = ../refined-set-2016/1ceb/1ceb_pocket.pdb
REMARK  96 active torsions:
REMARK  status: ('A' for Active; 'I' for Inactive)
REMARK    1  A    between atoms: _1  and  _3
REMARK    2  A    between atoms: _3  and  _4
REMARK    3  A    between atoms: _3  and  _6
REMARK    4  A    between atoms: _6  and  _7
REMARK    5  A    between atoms: _17  and  _19
REMARK    6  A    between atoms: _19  and  _20
REMARK    7  A    between atoms: _19  and  _22
REMARK    8  A    between atoms: _22  and  _23
REMARK    9  A    between atoms: _28  and  _30
REMARK   10  A    between atoms: _30  and  _31
REMARK   11  A    between atoms: _30  and  _33
REMARK   12  A    between atoms: _33  and  _34
REMARK   13  A    between atoms: _34  and  _35
REMARK   14  A    between atoms: _35  and  _36
REMARK   15  A    between atoms: _46  and  _47
REMARK   16  A    between atoms: _52  and  _54
REMARK   17  A    between atoms: _54  and  _55
REMARK   18  A    between atoms: _54  and  _57
REMARK   19  A    between atoms: _57  and  _58
REMARK   20  A    between atoms: _58  and  _59
REMARK   21  A    between atoms: _59  and  _60
REMARK   22  A    between atoms: _69  and  _71
REMARK   23  A    between atoms: _71  and  _72
REMARK   24  A    between atoms: _71  and  _74
REMARK   25  A    between atoms: _74  and  _75
REMARK   26  A    between atoms: _81  and  _83
REMARK   27  A    between atoms: _83  and  _84
REMARK   28  A    between atoms: _83  and  _86
REMARK   29  A    between atoms: _86  and  _87
REMARK   30  A    between atoms: _89  and  _91
REMARK   31  A    between atoms: _91  and  _92
REMARK   32  A    between atoms: _91  and  _94
REMARK   33  A    between atoms: _94  and  _95
REMARK   34  A    between atoms: _100  and  _102
REMARK   35  A    between atoms: _102  and  _103
REMARK   36  A    between atoms: _102  and  _105
REMARK   37  A    between atoms: _105  and  _106
REMARK   38  A    between atoms: _106  and  _107
REMARK   39  A    between atoms: _107  and  _108
REMARK   40  A    between atoms: _117  and  _119
REMARK   41  A    between atoms: _119  and  _120
REMARK   42  A    between atoms: _119  and  _122
REMARK   43  A    between atoms: _122  and  _123
REMARK   44  A    between atoms: _129  and  _130
REMARK   45  A    between atoms: _135  and  _137
REMARK   46  A    between atoms: _137  and  _138
REMARK   47  A    between atoms: _137  and  _140
REMARK   48  A    between atoms: _140  and  _141
REMARK   49  A    between atoms: _144  and  _146
REMARK   50  A    between atoms: _146  and  _147
REMARK   51  A    between atoms: _146  and  _149
REMARK   52  A    between atoms: _149  and  _150
REMARK   53  A    between atoms: _155  and  _157
REMARK   54  A    between atoms: _157  and  _158
REMARK   55  A    between atoms: _157  and  _160
REMARK   56  A    between atoms: _160  and  _161
REMARK   57  A    between atoms: _165  and  _166
REMARK   58  A    between atoms: _171  and  _173
REMARK   59  A    between atoms: _173  and  _174
REMARK   60  A    between atoms: _173  and  _176
REMARK   61  A    between atoms: _176  and  _177
REMARK   62  A    between atoms: _177  and  _178
REMARK   63  A    between atoms: _183  and  _185
REMARK   64  A    between atoms: _185  and  _186
REMARK   65  A    between atoms: _188  and  _190
REMARK   66  A    between atoms: _190  and  _191
REMARK   67  A    between atoms: _190  and  _193
REMARK   68  A    between atoms: _193  and  _194
REMARK   69  A    between atoms: _204  and  _206
REMARK   70  A    between atoms: _206  and  _207
REMARK   71  A    between atoms: _206  and  _209
REMARK   72  A    between atoms: _211  and  _213
REMARK   73  A    between atoms: _213  and  _214
REMARK   74  A    between atoms: _213  and  _216
REMARK   75  A    between atoms: _216  and  _217
REMARK   76  A    between atoms: _222  and  _223
REMARK   77  A    between atoms: _225  and  _227
REMARK   78  A    between atoms: _227  and  _228
REMARK   79  A    between atoms: _227  and  _230
REMARK   80  A    between atoms: _230  and  _231
REMARK   81  A    between atoms: _231  and  _232
REMARK   82  A    between atoms: _232  and  _233
REMARK   83  A    between atoms: _242  and  _244
REMARK   84  A    between atoms: _244  and  _245
REMARK   85  A    between atoms: _244  and  _247
REMARK   86  A    between atoms: _247  and  _248
REMARK   87  A    between atoms: _253  and  _254
REMARK   88  A    between atoms: _256  and  _258
REMARK   89  A    between atoms: _258  and  _259
REMARK   90  A    between atoms: _258  and  _261
REMARK   91  A    between atoms: _261  and  _262
REMARK   92  A    between atoms: _265  and  _267
REMARK   93  A    between atoms: _267  and  _268
REMARK   94  A    between atoms: _267  and  _270
REMARK   95  A    between atoms: _270  and  _271
REMARK   96  A    between atoms: _276  and  _277
REMARK                            x       y       z     vdW  Elec       q    Type
REMARK                         _______ _______ _______ _____ _____    ______ ____
ROOT
ATOM      1  CB  HIS A   1      14.971 -11.917  36.669  0.00  0.00    +0.072 C 
ENDROOT
BRANCH   1   2
ATOM      2  CG  HIS A   1      15.855 -11.680  37.866  0.00  0.00    +0.082 A 
ATOM      3  CD2 HIS A   1      15.504 -11.344  39.131  0.00  0.00    +0.115 A 
ATOM      4  NE2 HIS A   1      16.658 -11.392  39.868  0.00  0.00    -0.221 NA
ATOM      5  CE1 HIS A   1      17.668 -11.587  39.067  0.00  0.00    +0.199 A 
ATOM      6  ND1 HIS A   1      17.247 -11.883  37.852  0.00  0.00    -0.227 NA
ENDBRANCH   1   2
BRANCH   1   7
ATOM      7  CA  HIS A   1      15.074 -13.323  36.059  0.00  0.00    +0.139 C 
BRANCH   7   8
ATOM      8  N   HIS A   1      16.415 -13.985  36.011  0.00  0.00    -0.239 NA
ATOM      9  H   HIS A   1      17.109 -13.778  35.264  0.00  0.00    +0.142 HD
ENDBRANCH   7   8
BRANCH   7  10
ATOM     10  C   HIS A   1      14.433 -13.509  34.690  0.00  0.00    +0.224 C 
ATOM     11  O   HIS A   1      14.092 -12.640  33.893  0.00  0.00    -0.287 OA
ENDBRANCH   7  10
ENDBRANCH   1   7
TORSDOF 4
REMARK  Name = ../refined-set-2016/1ceb/1ceb_pocket.pdb
REMARK  96 active torsions:
REMARK  status: ('A' for Active; 'I' for Inactive)
REMARK    1  A    between atoms: _1  and  _3
REMARK    2  A    between atoms: _3  and  _4
REMARK    3  A    between atoms: _3  and  _6
REMARK    4  A    between atoms: _6  and  _7
REMARK    5  A    between atoms: _17  and  _19
REMARK    6  A    between atoms: _19  and  _20
REMARK    7  A    between atoms: _19  and  _22
REMARK    8  A    between atoms: _22  and  _23
REMARK    9  A    between atoms: _28  and  _30
REMARK   10  A    between atoms: _30  and  _31
REMARK   11  A    between atoms: _30  and  _33
REMARK   12  A    between atoms: _33  and  _34
REMARK   13  A    between atoms: _34  and  _35
REMARK   14  A    between atoms: _35  and  _36
REMARK   15  A    between atoms: _46  and  _47
REMARK   16  A    between atoms: _52  and  _54
REMARK   17  A    between atoms: _54  and  _55
REMARK   18  A    between atoms: _54  and  _57
REMARK   19  A    between atoms: _57  and  _58
REMARK   20  A    between atoms: _58  and  _59
REMARK   21  A    between atoms: _59  and  _60
REMARK   22  A    between atoms: _69  and  _71
REMARK   23  A    between atoms: _71  and  _72
REMARK   24  A    between atoms: _71  and  _74
REMARK   25  A    between atoms: _74  and  _75
REMARK   26  A    between atoms: _81  and  _83
REMARK   27  A    between atoms: _83  and  _84
REMARK   28  A    between atoms: _83  and  _86
REMARK   29  A    between atoms: _86  and  _87
REMARK   30  A    between atoms: _89  and  _91
REMARK   31  A    between atoms: _91  and  _92
REMARK   32  A    between atoms: _91  and  _94
REMARK   33  A    between atoms: _94  and  _95
REMARK   34  A    between atoms: _100  and  _102
REMARK   35  A    between atoms: _102  and  _103
REMARK   36  A    between atoms: _102  and  _105
REMARK   37  A    between atoms: _105  and  _106
REMARK   38  A    between atoms: _106  and  _107
REMARK   39  A    between atoms: _107  and  _108
REMARK   40  A    between atoms: _117  and  _119
REMARK   41  A    between atoms: _119  and  _120
REMARK   42  A    between atoms: _119  and  _122
REMARK   43  A    between atoms: _122  and  _123
REMARK   44  A    between atoms: _129  and  _130
REMARK   45  A    between atoms: _135  and  _137
REMARK   46  A    between atoms: _137  and  _138
REMARK   47  A    between atoms: _137  and  _140
REMARK   48  A    between atoms: _140  and  _141
REMARK   49  A    between atoms: _144  and  _146
REMARK   50  A    between atoms: _146  and  _147
REMARK   51  A    between atoms: _146  and  _149
REMARK   52  A    between atoms: _149  and  _150
REMARK   53  A    between atoms: _155  and  _157
REMARK   54  A    between atoms: _157  and  _158
REMARK   55  A    between atoms: _157  and  _160
REMARK   56  A    between atoms: _160  and  _161
REMARK   57  A    between atoms: _165  and  _166
REMARK   58  A    between atoms: _171  and  _173
REMARK   59  A    between atoms: _173  and  _174
REMARK   60  A    between atoms: _173  and  _176
REMARK   61  A    between atoms: _176  and  _177
REMARK   62  A    between atoms: _177  and  _178
REMARK   63  A    between atoms: _183  and  _185
REMARK   64  A    between atoms: _185  and  _186
REMARK   65  A    between atoms: _188  and  _190
REMARK   66  A    between atoms: _190  and  _191
REMARK   67  A    between atoms: _190  and  _193
REMARK   68  A    between atoms: _193  and  _194
REMARK   69  A    between atoms: _204  and  _206
REMARK   70  A    between atoms: _206  and  _207
REMARK   71  A    between atoms: _206  and  _209
REMARK   72  A    between atoms: _211  and  _213
REMARK   73  A    between atoms: _213  and  _214
REMARK   74  A    between atoms: _213  and  _216
REMARK   75  A    between atoms: _216  and  _217
REMARK   76  A    between atoms: _222  and  _223
REMARK   77  A    between atoms: _225  and  _227
REMARK   78  A    between atoms: _227  and  _228
REMARK   79  A    between atoms: _227  and  _230
REMARK   80  A    between atoms: _230  and  _231
REMARK   81  A    between atoms: _231  and  _232
REMARK   82  A    between atoms: _232  and  _233
REMARK   83  A    between atoms: _242  and  _244
REMARK   84  A    between atoms: _244  and  _245
REMARK   85  A    between atoms: _244  and  _247
REMARK   86  A    between atoms: _247  and  _248
REMARK   87  A    between atoms: _253  and  _254
REMARK   88  A    between atoms: _256  and  _258
REMARK   89  A    between atoms: _258  and  _259
REMARK   90  A    between atoms: _258  and  _261
REMARK   91  A    between atoms: _261  and  _262
REMARK   92  A    between atoms: _265  and  _267
REMARK   93  A    between atoms: _267  and  _268
REMARK   94  A    between atoms: _267  and  _270
REMARK   95  A    between atoms: _270  and  _271
REMARK   96  A    between atoms: _276  and  _277
REMARK                            x       y       z     vdW  Elec       q    Type
REMARK                         _______ _______ _______ _____ _____    ______ ____
ROOT
ATOM      1  C   ASP A   4      12.514  -3.994  41.317  0.00  0.00    +0.241 C 
ATOM      2  O   ASP A   4      12.356  -3.798  42.563  0.00  0.00    -0.273 OA
ATOM      3  N   ASN A   5      11.840  -3.427  40.340  0.00  0.00    -0.297 N 
ATOM      4  H   ASN A   5      12.108  -3.662  39.363  0.00  0.00    +0.150 HD
ENDROOT
BRANCH   3   5
ATOM      5  CA  ASN A   5      10.728  -2.478  40.543  0.00  0.00    +0.158 C 
BRANCH   5   6
ATOM      6  C   ASN A   5      11.031  -1.272  41.423  0.00  0.00    +0.241 C 
ATOM      7  O   ASN A   5      10.220  -0.821  42.260  0.00  0.00    -0.273 OA
ATOM      8  N   ASP A   6      12.218  -0.738  41.238  0.00  0.00    -0.297 N 
ATOM      9  H   ASP A   6      12.834  -1.245  40.570  0.00  0.00    +0.150 HD
BRANCH   8  10
ATOM     10  CA  ASP A   6      12.811   0.489  41.846  0.00  0.00    +0.161 C 
BRANCH  10  11
ATOM     11  C   ASP A   6      11.853   1.659  41.572  0.00  0.00    +0.248 C 
ATOM     12  N   PRO A   7      11.497   2.428  42.575  0.00  0.00    -0.249 N 
ATOM     13  CD  PRO A   7      11.984   2.386  43.962  0.00  0.00    +0.063 C 
ATOM     14  CG  PRO A   7      11.196   3.515  44.658  0.00  0.00    -0.008 C 
ATOM     15  CB  PRO A   7      10.422   4.281  43.652  0.00  0.00    +0.057 C 
ATOM     16  CA  PRO A   7      10.615   3.602  42.290  0.00  0.00    +0.160 C 
ATOM     17  O   ASP A   6      11.373   1.883  40.415  0.00  0.00    -0.273 OA
BRANCH  16  18
ATOM     18  C   PRO A   7      11.206   4.552  41.251  0.00  0.00    +0.242 C 
ATOM     19  N   GLN A   8      12.520   4.492  41.000  0.00  0.00    -0.297 N 
ATOM     20  H   GLN A   8      13.105   3.829  41.548  0.00  0.00    +0.150 HD
ATOM     21  O   PRO A   7      10.492   5.434  40.739  0.00  0.00    -0.273 OA
BRANCH  19  22
ATOM     22  CA  GLN A   8      13.163   5.323  39.984  0.00  0.00    +0.149 C 
BRANCH  22  23
ATOM     23  C   GLN A   8      12.977   4.900  38.511  0.00  0.00    +0.241 C 
ATOM     24  N   GLY A   9      12.224   3.874  38.118  0.00  0.00    -0.296 N 
ATOM     25  H   GLY A   9      11.763   3.288  38.843  0.00  0.00    +0.150 HD
ATOM     26  O   GLN A   8      13.492   5.756  37.706  0.00  0.00    -0.273 OA
BRANCH  24  27
ATOM     27  CA  GLY A   9      12.017   3.535  36.703  0.00  0.00    +0.163 C 
BRANCH  27  28
ATOM     28  C   GLY A   9      13.198   2.850  36.003  0.00  0.00    +0.229 C 
ATOM     29  O   GLY A   9      14.318   2.954  36.528  0.00  0.00    -0.286 OA
ENDBRANCH  27  28
ENDBRANCH  24  27
ENDBRANCH  22  23
BRANCH  22  30
ATOM     30  CB  GLN A   8      14.614   5.687  40.287  0.00  0.00    +0.039 C 
BRANCH  30  31
ATOM     31  CG  GLN A   8      14.647   6.493  41.575  0.00  0.00    +0.087 C 
BRANCH  31  32
ATOM     32  CD  GLN A   8      16.007   7.157  41.739  0.00  0.00    +0.219 C 
ATOM     33  NE2 GLN A   8      17.024   6.532  42.367  0.00  0.00    -0.329 N 
ATOM     34 HE21 GLN A   8      16.866   5.610  42.822  0.00  0.00    +0.145 HD
ATOM     35 HE22 GLN A   8      17.966   6.972  42.396  0.00  0.00    +0.145 HD
ATOM     36  OE1 GLN A   8      16.139   8.267  41.175  0.00  0.00    -0.275 OA
ENDBRANCH  31  32
ENDBRANCH  30  31
ENDBRANCH  22  30
ENDBRANCH  19  22
ENDBRANCH  16  18
ENDBRANCH  10  11
BRANCH  10  37
ATOM     37  CB  ASP A   6      14.167   0.693  41.223  0.00  0.00    +0.143 C 
BRANCH  37  38
ATOM     38  CG  ASP A   6      15.017   1.858  41.651  0.00  0.00    +0.367 C 
ATOM     39  OD2 ASP A   6      14.526   2.887  42.182  0.00  0.00    -0.246 OA
ATOM     40  OD1 ASP A   6      16.269   1.835  41.535  0.00  0.00    -0.246 OA
ENDBRANCH  37  38
ENDBRANCH  10  37
ENDBRANCH   8  10
ENDBRANCH   5   6
BRANCH   5  41
ATOM     41  CB  ASN A   5       9.595  -3.350  41.055  0.00  0.00    +0.114 C 
BRANCH  41  42
ATOM     42  CG  ASN A   5       8.588  -2.459  41.762  0.00  0.00    +0.222 C 
ATOM     43  OD1 ASN A   5       8.927  -2.243  42.943  0.00  0.00    -0.275 OA
ATOM     44  ND2 ASN A   5       7.503  -2.048  41.090  0.00  0.00    -0.329 N 
ATOM     45 HD21 ASN A   5       6.792  -1.455  41.563  0.00  0.00    +0.145 HD
ATOM     46 HD22 ASN A   5       7.372  -2.323  40.095  0.00  0.00    +0.145 HD
ENDBRANCH  41  42
ENDBRANCH   5  41
ENDBRANCH   3   5
BRANCH   1  47
ATOM     47  CA  ASP A   4      13.633  -4.924  40.970  0.00  0.00    +0.160 C 
BRANCH  47  49
ATOM     48  C   PRO A   3      13.396  -6.014  38.788  0.00  0.00    +0.242 C 
ATOM     49  N   ASP A   4      13.906  -5.065  39.536  0.00  0.00    -0.297 N 
ATOM     50  H   ASP A   4      14.540  -4.373  39.087  0.00  0.00    +0.150 HD
ATOM     51  O   PRO A   3      12.574  -6.911  39.112  0.00  0.00    -0.273 OA
BRANCH  48  55
ATOM     52  C   ASN A   2      12.786  -3.896  36.735  0.00  0.00    +0.248 C 
ATOM     53  O   ASN A   2      11.691  -4.241  37.222  0.00  0.00    -0.273 OA
ATOM     54  N   PRO A   3      13.850  -4.673  36.712  0.00  0.00    -0.249 N 
ATOM     55  CA  PRO A   3      13.845  -6.015  37.317  0.00  0.00    +0.160 C 
ATOM     56  CB  PRO A   3      15.250  -6.555  37.244  0.00  0.00    +0.057 C 
ATOM     57  CG  PRO A   3      16.052  -5.504  36.515  0.00  0.00    -0.008 C 
ATOM     58  CD  PRO A   3      15.149  -4.367  36.113  0.00  0.00    +0.063 C 
BRANCH  52  59
ATOM     59  CA  ASN A   2      13.077  -2.513  36.045  0.00  0.00    +0.158 C 
BRANCH  59  61
ATOM     60  C   ARG A   1      14.303  -2.358  33.877  0.00  0.00    +0.238 C 
ATOM     61  N   ASN A   2      13.289  -2.651  34.603  0.00  0.00    -0.297 N 
ATOM     62  H   ASN A   2      12.484  -3.053  34.082  0.00  0.00    +0.150 HD
ATOM     63  O   ARG A   1      15.322  -1.941  34.381  0.00  0.00    -0.274 OA
BRANCH  60  64
ATOM     64  CA  ARG A   1      14.178  -2.663  32.385  0.00  0.00    +0.145 C 
BRANCH  64  65
ATOM     65  N   ARG A   1      15.251  -1.910  31.686  0.00  0.00    -0.238 NA
ATOM     66  H   ARG A   1      16.197  -1.839  32.112  0.00  0.00    +0.142 HD
ENDBRANCH  64  65
BRANCH  64  67
ATOM     67  CB  ARG A   1      14.194  -4.136  32.057  0.00  0.00    +0.030 C 
BRANCH  67  68
ATOM     68  CG  ARG A   1      13.989  -4.425  30.517  0.00  0.00    +0.045 C 
BRANCH  68  69
ATOM     69  CD  ARG A   1      12.477  -4.304  30.177  0.00  0.00    +0.174 C 
BRANCH  69  70
ATOM     70  NE  ARG A   1      12.322  -4.987  28.876  0.00  0.00    -0.265 N 
ATOM     71  HE  ARG A   1      12.006  -5.977  28.852  0.00  0.00    +0.259 HD
ATOM     72  CZ  ARG A   1      12.582  -4.352  27.732  0.00  0.00    +0.342 C 
ATOM     73  NH2 ARG A   1      12.716  -3.037  27.822  0.00  0.00    -0.292 N 
ATOM     74 HH21 ARG A   1      12.618  -2.566  28.744  0.00  0.00    +0.255 HD
ATOM     75 HH22 ARG A   1      12.920  -2.476  26.971  0.00  0.00    +0.255 HD
ATOM     76  NH1 ARG A   1      12.605  -4.718  26.448  0.00  0.00    -0.292 N 
ATOM     77 HH11 ARG A   1      12.384  -5.699  26.183  0.00  0.00    +0.255 HD
ATOM     78 HH12 ARG A   1      12.844  -4.022  25.713  0.00  0.00    +0.255 HD
ENDBRANCH  69  70
ENDBRANCH  68  69
ENDBRANCH  67  68
ENDBRANCH  64  67
ENDBRANCH  60  64
ENDBRANCH  59  61
BRANCH  59  79
ATOM     79  CB  ASN A   2      11.890  -1.533  36.206  0.00  0.00    +0.114 C 
BRANCH  79  80
ATOM     80  CG  ASN A   2      12.081  -0.968  37.628  0.00  0.00    +0.222 C 
ATOM     81  OD1 ASN A   2      13.160  -1.401  38.118  0.00  0.00    -0.275 OA
ATOM     82  ND2 ASN A   2      11.222  -0.038  38.060  0.00  0.00    -0.329 N 
ATOM     83 HD21 ASN A   2      11.405   0.465  38.952  0.00  0.00    +0.145 HD
ATOM     84 HD22 ASN A   2      10.371   0.183  37.504  0.00  0.00    +0.145 HD
ENDBRANCH  79  80
ENDBRANCH  59  79
ENDBRANCH  52  59
ENDBRANCH  48  55
ENDBRANCH  47  49
BRANCH  47  85
ATOM     85  CB  ASP A   4      14.924  -4.542  41.654  0.00  0.00    +0.143 C 
BRANCH  85  86
ATOM     86  CG  ASP A   4      15.611  -3.313  41.054  0.00  0.00    +0.367 C 
ATOM     87  OD2 ASP A   4      16.522  -2.791  41.775  0.00  0.00    -0.246 OA
ATOM     88  OD1 ASP A   4      15.316  -2.971  39.878  0.00  0.00    -0.246 OA
ENDBRANCH  85  86
ENDBRANCH  47  85
ENDBRANCH   1  47
TORSDOF 31
REMARK  Name = ../refined-set-2016/1ceb/1ceb_pocket.pdb
REMARK  96 active torsions:
REMARK  status: ('A' for Active; 'I' for Inactive)
REMARK    1  A    between atoms: _1  and  _3
REMARK    2  A    between atoms: _3  and  _4
REMARK    3  A    between atoms: _3  and  _6
REMARK    4  A    between atoms: _6  and  _7
REMARK    5  A    between atoms: _17  and  _19
REMARK    6  A    between atoms: _19  and  _20
REMARK    7  A    between atoms: _19  and  _22
REMARK    8  A    between atoms: _22  and  _23
REMARK    9  A    between atoms: _28  and  _30
REMARK   10  A    between atoms: _30  and  _31
REMARK   11  A    between atoms: _30  and  _33
REMARK   12  A    between atoms: _33  and  _34
REMARK   13  A    between atoms: _34  and  _35
REMARK   14  A    between atoms: _35  and  _36
REMARK   15  A    between atoms: _46  and  _47
REMARK   16  A    between atoms: _52  and  _54
REMARK   17  A    between atoms: _54  and  _55
REMARK   18  A    between atoms: _54  and  _57
REMARK   19  A    between atoms: _57  and  _58
REMARK   20  A    between atoms: _58  and  _59
REMARK   21  A    between atoms: _59  and  _60
REMARK   22  A    between atoms: _69  and  _71
REMARK   23  A    between atoms: _71  and  _72
REMARK   24  A    between atoms: _71  and  _74
REMARK   25  A    between atoms: _74  and  _75
REMARK   26  A    between atoms: _81  and  _83
REMARK   27  A    between atoms: _83  and  _84
REMARK   28  A    between atoms: _83  and  _86
REMARK   29  A    between atoms: _86  and  _87
REMARK   30  A    between atoms: _89  and  _91
REMARK   31  A    between atoms: _91  and  _92
REMARK   32  A    between atoms: _91  and  _94
REMARK   33  A    between atoms: _94  and  _95
REMARK   34  A    between atoms: _100  and  _102
REMARK   35  A    between atoms: _102  and  _103
REMARK   36  A    between atoms: _102  and  _105
REMARK   37  A    between atoms: _105  and  _106
REMARK   38  A    between atoms: _106  and  _107
REMARK   39  A    between atoms: _107  and  _108
REMARK   40  A    between atoms: _117  and  _119
REMARK   41  A    between atoms: _119  and  _120
REMARK   42  A    between atoms: _119  and  _122
REMARK   43  A    between atoms: _122  and  _123
REMARK   44  A    between atoms: _129  and  _130
REMARK   45  A    between atoms: _135  and  _137
REMARK   46  A    between atoms: _137  and  _138
REMARK   47  A    between atoms: _137  and  _140
REMARK   48  A    between atoms: _140  and  _141
REMARK   49  A    between atoms: _144  and  _146
REMARK   50  A    between atoms: _146  and  _147
REMARK   51  A    between atoms: _146  and  _149
REMARK   52  A    between atoms: _149  and  _150
REMARK   53  A    between atoms: _155  and  _157
REMARK   54  A    between atoms: _157  and  _158
REMARK   55  A    between atoms: _157  and  _160
REMARK   56  A    between atoms: _160  and  _161
REMARK   57  A    between atoms: _165  and  _166
REMARK   58  A    between atoms: _171  and  _173
REMARK   59  A    between atoms: _173  and  _174
REMARK   60  A    between atoms: _173  and  _176
REMARK   61  A    between atoms: _176  and  _177
REMARK   62  A    between atoms: _177  and  _178
REMARK   63  A    between atoms: _183  and  _185
REMARK   64  A    between atoms: _185  and  _186
REMARK   65  A    between atoms: _188  and  _190
REMARK   66  A    between atoms: _190  and  _191
REMARK   67  A    between atoms: _190  and  _193
REMARK   68  A    between atoms: _193  and  _194
REMARK   69  A    between atoms: _204  and  _206
REMARK   70  A    between atoms: _206  and  _207
REMARK   71  A    between atoms: _206  and  _209
REMARK   72  A    between atoms: _211  and  _213
REMARK   73  A    between atoms: _213  and  _214
REMARK   74  A    between atoms: _213  and  _216
REMARK   75  A    between atoms: _216  and  _217
REMARK   76  A    between atoms: _222  and  _223
REMARK   77  A    between atoms: _225  and  _227
REMARK   78  A    between atoms: _227  and  _228
REMARK   79  A    between atoms: _227  and  _230
REMARK   80  A    between atoms: _230  and  _231
REMARK   81  A    between atoms: _231  and  _232
REMARK   82  A    between atoms: _232  and  _233
REMARK   83  A    between atoms: _242  and  _244
REMARK   84  A    between atoms: _244  and  _245
REMARK   85  A    between atoms: _244  and  _247
REMARK   86  A    between atoms: _247  and  _248
REMARK   87  A    between atoms: _253  and  _254
REMARK   88  A    between atoms: _256  and  _258
REMARK   89  A    between atoms: _258  and  _259
REMARK   90  A    between atoms: _258  and  _261
REMARK   91  A    between atoms: _261  and  _262
REMARK   92  A    between atoms: _265  and  _267
REMARK   93  A    between atoms: _267  and  _268
REMARK   94  A    between atoms: _267  and  _270
REMARK   95  A    between atoms: _270  and  _271
REMARK   96  A    between atoms: _276  and  _277
REMARK                            x       y       z     vdW  Elec       q    Type
REMARK                         _______ _______ _______ _____ _____    ______ ____
ROOT
ATOM      1  CA  CYS A   2      20.450  -0.842  32.571  0.00  0.00    +0.160 C 
ENDROOT
BRANCH   1   3
ATOM      2  C   TRP A   1      18.396   0.317  33.306  0.00  0.00    +0.239 C 
ATOM      3  N   CYS A   2      19.733   0.272  33.236  0.00  0.00    -0.296 N 
ATOM      4  H   CYS A   2      20.286   1.043  33.662  0.00  0.00    +0.150 HD
ATOM      5  O   TRP A   1      17.621  -0.567  32.940  0.00  0.00    -0.274 OA
BRANCH   2   6
ATOM      6  CA  TRP A   1      17.823   1.515  34.114  0.00  0.00    +0.149 C 
BRANCH   6   7
ATOM      7  N   TRP A   1      16.400   1.308  34.021  0.00  0.00    -0.238 NA
ATOM      8  H   TRP A   1      16.100   0.321  33.889  0.00  0.00    +0.142 HD
ENDBRANCH   6   7
BRANCH   6   9
ATOM      9  CB  TRP A   1      18.210   1.510  35.610  0.00  0.00    +0.054 C 
BRANCH   9  10
ATOM     10  CG  TRP A   1      17.949   0.191  36.298  0.00  0.00    -0.002 A 
ATOM     11  CD1 TRP A   1      16.870  -0.104  37.071  0.00  0.00    +0.068 A 
ATOM     12  NE1 TRP A   1      16.986  -1.361  37.626  0.00  0.00    -0.352 N 
ATOM     13  HE1 TRP A   1      16.342  -1.779  38.327  0.00  0.00    +0.166 HD
ATOM     14  CE2 TRP A   1      18.103  -1.968  37.091  0.00  0.00    +0.056 A 
ATOM     15  CZ2 TRP A   1      18.567  -3.281  37.263  0.00  0.00    +0.017 A 
ATOM     16  CH2 TRP A   1      19.855  -3.565  36.761  0.00  0.00    +0.001 A 
ATOM     17  CZ3 TRP A   1      20.590  -2.573  36.060  0.00  0.00    +0.000 A 
ATOM     18  CE3 TRP A   1      19.985  -1.361  35.725  0.00  0.00    +0.001 A 
ATOM     19  CD2 TRP A   1      18.722  -1.053  36.222  0.00  0.00    +0.013 A 
ENDBRANCH   9  10
ENDBRANCH   6   9
ENDBRANCH   2   6
ENDBRANCH   1   3
BRANCH   1  20
ATOM     20  C   CYS A   2      21.880  -0.817  33.080  0.00  0.00    +0.242 C 
ATOM     21  O   CYS A   2      22.271   0.231  33.693  0.00  0.00    -0.273 OA
ATOM     22  N   TYR A   3      22.668  -1.862  32.825  0.00  0.00    -0.298 N 
ATOM     23  H   TYR A   3      22.257  -2.727  32.419  0.00  0.00    +0.150 HD
BRANCH  22  24
ATOM     24  CA  TYR A   3      24.107  -1.810  33.109  0.00  0.00    +0.141 C 
BRANCH  24  25
ATOM     25  C   TYR A   3      24.624  -0.991  31.888  0.00  0.00    +0.227 C 
ATOM     26  O   TYR A   3      24.111  -1.109  30.769  0.00  0.00    -0.286 OA
ENDBRANCH  24  25
BRANCH  24  27
ATOM     27  CB  TYR A   3      24.843  -3.135  33.391  0.00  0.00    +0.054 C 
BRANCH  27  28
ATOM     28  CG  TYR A   3      24.268  -3.975  34.540  0.00  0.00    -0.020 A 
ATOM     29  CD2 TYR A   3      24.712  -3.734  35.848  0.00  0.00    -0.001 A 
ATOM     30  CE2 TYR A   3      24.180  -4.411  36.949  0.00  0.00    +0.036 A 
ATOM     31  CZ  TYR A   3      23.102  -5.311  36.777  0.00  0.00    +0.134 A 
ATOM     32  CE1 TYR A   3      22.571  -5.536  35.483  0.00  0.00    +0.036 A 
ATOM     33  CD1 TYR A   3      23.155  -4.852  34.390  0.00  0.00    -0.001 A 
BRANCH  31  34
ATOM     34  OH  TYR A   3      22.534  -5.938  37.866  0.00  0.00    -0.506 OA
ATOM     35  HH  TYR A   3      22.175  -5.256  38.488  0.00  0.00    +0.292 HD
ENDBRANCH  31  34
ENDBRANCH  27  28
ENDBRANCH  24  27
ENDBRANCH  22  24
ENDBRANCH   1  20
BRANCH   1  36
ATOM     36  CB  CYS A   2      20.340  -0.580  31.054  0.00  0.00    +0.098 C 
ATOM     37  SG  CYS A   2      21.412   0.821  30.478  0.00  0.00    -0.080 S 
ENDBRANCH   1  36
TORSDOF 12
REMARK  Name = ../refined-set-2016/1ceb/1ceb_pocket.pdb
REMARK  96 active torsions:
REMARK  status: ('A' for Active; 'I' for Inactive)
REMARK    1  A    between atoms: _1  and  _3
REMARK    2  A    between atoms: _3  and  _4
REMARK    3  A    between atoms: _3  and  _6
REMARK    4  A    between atoms: _6  and  _7
REMARK    5  A    between atoms: _17  and  _19
REMARK    6  A    between atoms: _19  and  _20
REMARK    7  A    between atoms: _19  and  _22
REMARK    8  A    between atoms: _22  and  _23
REMARK    9  A    between atoms: _28  and  _30
REMARK   10  A    between atoms: _30  and  _31
REMARK   11  A    between atoms: _30  and  _33
REMARK   12  A    between atoms: _33  and  _34
REMARK   13  A    between atoms: _34  and  _35
REMARK   14  A    between atoms: _35  and  _36
REMARK   15  A    between atoms: _46  and  _47
REMARK   16  A    between atoms: _52  and  _54
REMARK   17  A    between atoms: _54  and  _55
REMARK   18  A    between atoms: _54  and  _57
REMARK   19  A    between atoms: _57  and  _58
REMARK   20  A    between atoms: _58  and  _59
REMARK   21  A    between atoms: _59  and  _60
REMARK   22  A    between atoms: _69  and  _71
REMARK   23  A    between atoms: _71  and  _72
REMARK   24  A    between atoms: _71  and  _74
REMARK   25  A    between atoms: _74  and  _75
REMARK   26  A    between atoms: _81  and  _83
REMARK   27  A    between atoms: _83  and  _84
REMARK   28  A    between atoms: _83  and  _86
REMARK   29  A    between atoms: _86  and  _87
REMARK   30  A    between atoms: _89  and  _91
REMARK   31  A    between atoms: _91  and  _92
REMARK   32  A    between atoms: _91  and  _94
REMARK   33  A    between atoms: _94  and  _95
REMARK   34  A    between atoms: _100  and  _102
REMARK   35  A    between atoms: _102  and  _103
REMARK   36  A    between atoms: _102  and  _105
REMARK   37  A    between atoms: _105  and  _106
REMARK   38  A    between atoms: _106  and  _107
REMARK   39  A    between atoms: _107  and  _108
REMARK   40  A    between atoms: _117  and  _119
REMARK   41  A    between atoms: _119  and  _120
REMARK   42  A    between atoms: _119  and  _122
REMARK   43  A    between atoms: _122  and  _123
REMARK   44  A    between atoms: _129  and  _130
REMARK   45  A    between atoms: _135  and  _137
REMARK   46  A    between atoms: _137  and  _138
REMARK   47  A    between atoms: _137  and  _140
REMARK   48  A    between atoms: _140  and  _141
REMARK   49  A    between atoms: _144  and  _146
REMARK   50  A    between atoms: _146  and  _147
REMARK   51  A    between atoms: _146  and  _149
REMARK   52  A    between atoms: _149  and  _150
REMARK   53  A    between atoms: _155  and  _157
REMARK   54  A    between atoms: _157  and  _158
REMARK   55  A    between atoms: _157  and  _160
REMARK   56  A    between atoms: _160  and  _161
REMARK   57  A    between atoms: _165  and  _166
REMARK   58  A    between atoms: _171  and  _173
REMARK   59  A    between atoms: _173  and  _174
REMARK   60  A    between atoms: _173  and  _176
REMARK   61  A    between atoms: _176  and  _177
REMARK   62  A    between atoms: _177  and  _178
REMARK   63  A    between atoms: _183  and  _185
REMARK   64  A    between atoms: _185  and  _186
REMARK   65  A    between atoms: _188  and  _190
REMARK   66  A    between atoms: _190  and  _191
REMARK   67  A    between atoms: _190  and  _193
REMARK   68  A    between atoms: _193  and  _194
REMARK   69  A    between atoms: _204  and  _206
REMARK   70  A    between atoms: _206  and  _207
REMARK   71  A    between atoms: _206  and  _209
REMARK   72  A    between atoms: _211  and  _213
REMARK   73  A    between atoms: _213  and  _214
REMARK   74  A    between atoms: _213  and  _216
REMARK   75  A    between atoms: _216  and  _217
REMARK   76  A    between atoms: _222  and  _223
REMARK   77  A    between atoms: _225  and  _227
REMARK   78  A    between atoms: _227  and  _228
REMARK   79  A    between atoms: _227  and  _230
REMARK   80  A    between atoms: _230  and  _231
REMARK   81  A    between atoms: _231  and  _232
REMARK   82  A    between atoms: _232  and  _233
REMARK   83  A    between atoms: _242  and  _244
REMARK   84  A    between atoms: _244  and  _245
REMARK   85  A    between atoms: _244  and  _247
REMARK   86  A    between atoms: _247  and  _248
REMARK   87  A    between atoms: _253  and  _254
REMARK   88  A    between atoms: _256  and  _258
REMARK   89  A    between atoms: _258  and  _259
REMARK   90  A    between atoms: _258  and  _261
REMARK   91  A    between atoms: _261  and  _262
REMARK   92  A    between atoms: _265  and  _267
REMARK   93  A    between atoms: _267  and  _268
REMARK   94  A    between atoms: _267  and  _270
REMARK   95  A    between atoms: _270  and  _271
REMARK   96  A    between atoms: _276  and  _277
REMARK                            x       y       z     vdW  Elec       q    Type
REMARK                         _______ _______ _______ _____ _____    ______ ____
ROOT
ATOM      1  CA  TYR A   2      24.311   1.231  36.048  0.00  0.00    +0.153 C 
ENDROOT
BRANCH   1   3
ATOM      2  C   ARG A   1      26.470   0.219  36.320  0.00  0.00    +0.238 C 
ATOM      3  N   TYR A   2      25.589   1.084  36.725  0.00  0.00    -0.297 N 
ATOM      4  H   TYR A   2      25.802   1.682  37.549  0.00  0.00    +0.150 HD
ATOM      5  O   ARG A   1      26.223  -0.655  35.409  0.00  0.00    -0.274 OA
BRANCH   2   6
ATOM      6  CA  ARG A   1      27.874   0.147  36.926  0.00  0.00    +0.145 C 
BRANCH   6   7
ATOM      7  N   ARG A   1      28.592   1.415  36.935  0.00  0.00    -0.238 NA
ATOM      8  H   ARG A   1      28.893   1.782  37.860  0.00  0.00    +0.142 HD
ENDBRANCH   6   7
BRANCH   6   9
ATOM      9  CB  ARG A   1      28.032  -0.802  38.163  0.00  0.00    +0.030 C 
BRANCH   9  10
ATOM     10  CG  ARG A   1      27.001  -1.915  38.218  0.00  0.00    +0.045 C 
BRANCH  10  11
ATOM     11  CD  ARG A   1      26.732  -2.581  39.561  0.00  0.00    +0.174 C 
BRANCH  11  12
ATOM     12  NE  ARG A   1      27.611  -3.765  39.640  0.00  0.00    -0.265 N 
ATOM     13  HE  ARG A   1      28.527  -3.723  40.130  0.00  0.00    +0.259 HD
ATOM     14  CZ  ARG A   1      27.184  -4.905  39.053  0.00  0.00    +0.342 C 
ATOM     15  NH2 ARG A   1      25.863  -5.149  38.959  0.00  0.00    -0.292 N 
ATOM     16 HH21 ARG A   1      25.179  -4.462  39.337  0.00  0.00    +0.255 HD
ATOM     17 HH22 ARG A   1      25.527  -6.024  38.509  0.00  0.00    +0.255 HD
ATOM     18  NH1 ARG A   1      28.022  -5.917  38.943  0.00  0.00    -0.292 N 
ATOM     19 HH11 ARG A   1      28.993  -5.830  39.305  0.00  0.00    +0.255 HD
ATOM     20 HH12 ARG A   1      27.712  -6.803  38.494  0.00  0.00    +0.255 HD
ENDBRANCH  11  12
ENDBRANCH  10  11
ENDBRANCH   9  10
ENDBRANCH   6   9
ENDBRANCH   2   6
ENDBRANCH   1   3
BRANCH   1  21
ATOM     21  C   TYR A   2      24.003   2.742  36.027  0.00  0.00    +0.241 C 
ATOM     22  O   TYR A   2      24.912   3.559  36.325  0.00  0.00    -0.273 OA
ATOM     23  N   ASP A   3      22.729   2.976  35.667  0.00  0.00    -0.297 N 
ATOM     24  H   ASP A   3      22.122   2.178  35.392  0.00  0.00    +0.150 HD
BRANCH  23  25
ATOM     25  CA  ASP A   3      22.176   4.342  35.655  0.00  0.00    +0.160 C 
BRANCH  25  26
ATOM     26  C   ASP A   3      20.757   4.146  35.117  0.00  0.00    +0.241 C 
ATOM     27  N   TYR A   4      19.898   5.083  35.438  0.00  0.00    -0.298 N 
ATOM     28  H   TYR A   4      20.188   5.859  36.067  0.00  0.00    +0.150 HD
ATOM     29  O   ASP A   3      20.504   3.142  34.396  0.00  0.00    -0.273 OA
BRANCH  27  30
ATOM     30  CA  TYR A   4      18.508   5.039  34.905  0.00  0.00    +0.141 C 
BRANCH  30  31
ATOM     31  C   TYR A   4      18.444   5.747  33.523  0.00  0.00    +0.227 C 
ATOM     32  O   TYR A   4      19.352   6.454  33.033  0.00  0.00    -0.286 OA
ENDBRANCH  30  31
BRANCH  30  33
ATOM     33  CB  TYR A   4      17.473   5.595  35.877  0.00  0.00    +0.054 C 
BRANCH  33  34
ATOM     34  CG  TYR A   4      17.608   5.075  37.287  0.00  0.00    -0.020 A 
ATOM     35  CD2 TYR A   4      18.762   5.325  38.023  0.00  0.00    -0.001 A 
ATOM     36  CE2 TYR A   4      18.903   4.881  39.342  0.00  0.00    +0.036 A 
ATOM     37  CZ  TYR A   4      17.888   4.173  39.957  0.00  0.00    +0.134 A 
ATOM     38  CE1 TYR A   4      16.760   3.813  39.219  0.00  0.00    +0.036 A 
ATOM     39  CD1 TYR A   4      16.651   4.248  37.887  0.00  0.00    -0.001 A 
BRANCH  37  40
ATOM     40  OH  TYR A   4      18.163   3.711  41.213  0.00  0.00    -0.506 OA
ATOM     41  HH  TYR A   4      19.014   4.105  41.529  0.00  0.00    +0.292 HD
ENDBRANCH  37  40
ENDBRANCH  33  34
ENDBRANCH  30  33
ENDBRANCH  27  30
ENDBRANCH  25  26
BRANCH  25  42
ATOM     42  CB  ASP A   3      23.004   5.357  34.886  0.00  0.00    +0.143 C 
BRANCH  42  43
ATOM     43  CG  ASP A   3      22.567   6.798  35.096  0.00  0.00    +0.367 C 
ATOM     44  OD2 ASP A   3      21.506   7.052  35.698  0.00  0.00    -0.246 OA
ATOM     45  OD1 ASP A   3      23.350   7.738  34.731  0.00  0.00    -0.246 OA
ENDBRANCH  42  43
ENDBRANCH  25  42
ENDBRANCH  23  25
ENDBRANCH   1  21
BRANCH   1  46
ATOM     46  CB  TYR A   2      23.127   0.436  36.642  0.00  0.00    +0.055 C 
BRANCH  46  47
ATOM     47  CG  TYR A   2      22.773   0.797  38.061  0.00  0.00    -0.020 A 
ATOM     48  CD2 TYR A   2      23.714   0.613  39.085  0.00  0.00    -0.001 A 
ATOM     49  CE2 TYR A   2      23.451   1.098  40.375  0.00  0.00    +0.036 A 
ATOM     50  CZ  TYR A   2      22.239   1.749  40.633  0.00  0.00    +0.134 A 
ATOM     51  CE1 TYR A   2      21.348   2.052  39.595  0.00  0.00    +0.036 A 
ATOM     52  CD1 TYR A   2      21.660   1.603  38.312  0.00  0.00    -0.001 A 
BRANCH  50  53
ATOM     53  OH  TYR A   2      21.908   2.155  41.904  0.00  0.00    -0.506 OA
ATOM     54  HH  TYR A   2      22.620   1.878  42.534  0.00  0.00    +0.292 HD
ENDBRANCH  50  53
ENDBRANCH  46  47
ENDBRANCH   1  46
TORSDOF 20
REMARK  Name = ../refined-set-2016/1ceb/1ceb_pocket.pdb
REMARK  96 active torsions:
REMARK  status: ('A' for Active; 'I' for Inactive)
REMARK    1  A    between atoms: _1  and  _3
REMARK    2  A    between atoms: _3  and  _4
REMARK    3  A    between atoms: _3  and  _6
REMARK    4  A    between atoms: _6  and  _7
REMARK    5  A    between atoms: _17  and  _19
REMARK    6  A    between atoms: _19  and  _20
REMARK    7  A    between atoms: _19  and  _22
REMARK    8  A    between atoms: _22  and  _23
REMARK    9  A    between atoms: _28  and  _30
REMARK   10  A    between atoms: _30  and  _31
REMARK   11  A    between atoms: _30  and  _33
REMARK   12  A    between atoms: _33  and  _34
REMARK   13  A    between atoms: _34  and  _35
REMARK   14  A    between atoms: _35  and  _36
REMARK   15  A    between atoms: _46  and  _47
REMARK   16  A    between atoms: _52  and  _54
REMARK   17  A    between atoms: _54  and  _55
REMARK   18  A    between atoms: _54  and  _57
REMARK   19  A    between atoms: _57  and  _58
REMARK   20  A    between atoms: _58  and  _59
REMARK   21  A    between atoms: _59  and  _60
REMARK   22  A    between atoms: _69  and  _71
REMARK   23  A    between atoms: _71  and  _72
REMARK   24  A    between atoms: _71  and  _74
REMARK   25  A    between atoms: _74  and  _75
REMARK   26  A    between atoms: _81  and  _83
REMARK   27  A    between atoms: _83  and  _84
REMARK   28  A    between atoms: _83  and  _86
REMARK   29  A    between atoms: _86  and  _87
REMARK   30  A    between atoms: _89  and  _91
REMARK   31  A    between atoms: _91  and  _92
REMARK   32  A    between atoms: _91  and  _94
REMARK   33  A    between atoms: _94  and  _95
REMARK   34  A    between atoms: _100  and  _102
REMARK   35  A    between atoms: _102  and  _103
REMARK   36  A    between atoms: _102  and  _105
REMARK   37  A    between atoms: _105  and  _106
REMARK   38  A    between atoms: _106  and  _107
REMARK   39  A    between atoms: _107  and  _108
REMARK   40  A    between atoms: _117  and  _119
REMARK   41  A    between atoms: _119  and  _120
REMARK   42  A    between atoms: _119  and  _122
REMARK   43  A    between atoms: _122  and  _123
REMARK   44  A    between atoms: _129  and  _130
REMARK   45  A    between atoms: _135  and  _137
REMARK   46  A    between atoms: _137  and  _138
REMARK   47  A    between atoms: _137  and  _140
REMARK   48  A    between atoms: _140  and  _141
REMARK   49  A    between atoms: _144  and  _146
REMARK   50  A    between atoms: _146  and  _147
REMARK   51  A    between atoms: _146  and  _149
REMARK   52  A    between atoms: _149  and  _150
REMARK   53  A    between atoms: _155  and  _157
REMARK   54  A    between atoms: _157  and  _158
REMARK   55  A    between atoms: _157  and  _160
REMARK   56  A    between atoms: _160  and  _161
REMARK   57  A    between atoms: _165  and  _166
REMARK   58  A    between atoms: _171  and  _173
REMARK   59  A    between atoms: _173  and  _174
REMARK   60  A    between atoms: _173  and  _176
REMARK   61  A    between atoms: _176  and  _177
REMARK   62  A    between atoms: _177  and  _178
REMARK   63  A    between atoms: _183  and  _185
REMARK   64  A    between atoms: _185  and  _186
REMARK   65  A    between atoms: _188  and  _190
REMARK   66  A    between atoms: _190  and  _191
REMARK   67  A    between atoms: _190  and  _193
REMARK   68  A    between atoms: _193  and  _194
REMARK   69  A    between atoms: _204  and  _206
REMARK   70  A    between atoms: _206  and  _207
REMARK   71  A    between atoms: _206  and  _209
REMARK   72  A    between atoms: _211  and  _213
REMARK   73  A    between atoms: _213  and  _214
REMARK   74  A    between atoms: _213  and  _216
REMARK   75  A    between atoms: _216  and  _217
REMARK   76  A    between atoms: _222  and  _223
REMARK   77  A    between atoms: _225  and  _227
REMARK   78  A    between atoms: _227  and  _228
REMARK   79  A    between atoms: _227  and  _230
REMARK   80  A    between atoms: _230  and  _231
REMARK   81  A    between atoms: _231  and  _232
REMARK   82  A    between atoms: _232  and  _233
REMARK   83  A    between atoms: _242  and  _244
REMARK   84  A    between atoms: _244  and  _245
REMARK   85  A    between atoms: _244  and  _247
REMARK   86  A    between atoms: _247  and  _248
REMARK   87  A    between atoms: _253  and  _254
REMARK   88  A    between atoms: _256  and  _258
REMARK   89  A    between atoms: _258  and  _259
REMARK   90  A    between atoms: _258  and  _261
REMARK   91  A    between atoms: _261  and  _262
REMARK   92  A    between atoms: _265  and  _267
REMARK   93  A    between atoms: _267  and  _268
REMARK   94  A    between atoms: _267  and  _270
REMARK   95  A    between atoms: _270  and  _271
REMARK   96  A    between atoms: _276  and  _277
REMARK                            x       y       z     vdW  Elec       q    Type
REMARK                         _______ _______ _______ _____ _____    ______ ____
ROOT
ATOM      1  O   HOH     1      19.817   4.818  42.969  0.00  0.00    +0.000 OA
ENDROOT
TORSDOF 0
REMARK  Name = ../refined-set-2016/1ceb/1ceb_pocket.pdb
REMARK  96 active torsions:
REMARK  status: ('A' for Active; 'I' for Inactive)
REMARK    1  A    between atoms: _1  and  _3
REMARK    2  A    between atoms: _3  and  _4
REMARK    3  A    between atoms: _3  and  _6
REMARK    4  A    between atoms: _6  and  _7
REMARK    5  A    between atoms: _17  and  _19
REMARK    6  A    between atoms: _19  and  _20
REMARK    7  A    between atoms: _19  and  _22
REMARK    8  A    between atoms: _22  and  _23
REMARK    9  A    between atoms: _28  and  _30
REMARK   10  A    between atoms: _30  and  _31
REMARK   11  A    between atoms: _30  and  _33
REMARK   12  A    between atoms: _33  and  _34
REMARK   13  A    between atoms: _34  and  _35
REMARK   14  A    between atoms: _35  and  _36
REMARK   15  A    between atoms: _46  and  _47
REMARK   16  A    between atoms: _52  and  _54
REMARK   17  A    between atoms: _54  and  _55
REMARK   18  A    between atoms: _54  and  _57
REMARK   19  A    between atoms: _57  and  _58
REMARK   20  A    between atoms: _58  and  _59
REMARK   21  A    between atoms: _59  and  _60
REMARK   22  A    between atoms: _69  and  _71
REMARK   23  A    between atoms: _71  and  _72
REMARK   24  A    between atoms: _71  and  _74
REMARK   25  A    between atoms: _74  and  _75
REMARK   26  A    between atoms: _81  and  _83
REMARK   27  A    between atoms: _83  and  _84
REMARK   28  A    between atoms: _83  and  _86
REMARK   29  A    between atoms: _86  and  _87
REMARK   30  A    between atoms: _89  and  _91
REMARK   31  A    between atoms: _91  and  _92
REMARK   32  A    between atoms: _91  and  _94
REMARK   33  A    between atoms: _94  and  _95
REMARK   34  A    between atoms: _100  and  _102
REMARK   35  A    between atoms: _102  and  _103
REMARK   36  A    between atoms: _102  and  _105
REMARK   37  A    between atoms: _105  and  _106
REMARK   38  A    between atoms: _106  and  _107
REMARK   39  A    between atoms: _107  and  _108
REMARK   40  A    between atoms: _117  and  _119
REMARK   41  A    between atoms: _119  and  _120
REMARK   42  A    between atoms: _119  and  _122
REMARK   43  A    between atoms: _122  and  _123
REMARK   44  A    between atoms: _129  and  _130
REMARK   45  A    between atoms: _135  and  _137
REMARK   46  A    between atoms: _137  and  _138
REMARK   47  A    between atoms: _137  and  _140
REMARK   48  A    between atoms: _140  and  _141
REMARK   49  A    between atoms: _144  and  _146
REMARK   50  A    between atoms: _146  and  _147
REMARK   51  A    between atoms: _146  and  _149
REMARK   52  A    between atoms: _149  and  _150
REMARK   53  A    between atoms: _155  and  _157
REMARK   54  A    between atoms: _157  and  _158
REMARK   55  A    between atoms: _157  and  _160
REMARK   56  A    between atoms: _160  and  _161
REMARK   57  A    between atoms: _165  and  _166
REMARK   58  A    between atoms: _171  and  _173
REMARK   59  A    between atoms: _173  and  _174
REMARK   60  A    between atoms: _173  and  _176
REMARK   61  A    between atoms: _176  and  _177
REMARK   62  A    between atoms: _177  and  _178
REMARK   63  A    between atoms: _183  and  _185
REMARK   64  A    between atoms: _185  and  _186
REMARK   65  A    between atoms: _188  and  _190
REMARK   66  A    between atoms: _190  and  _191
REMARK   67  A    between atoms: _190  and  _193
REMARK   68  A    between atoms: _193  and  _194
REMARK   69  A    between atoms: _204  and  _206
REMARK   70  A    between atoms: _206  and  _207
REMARK   71  A    between atoms: _206  and  _209
REMARK   72  A    between atoms: _211  and  _213
REMARK   73  A    between atoms: _213  and  _214
REMARK   74  A    between atoms: _213  and  _216
REMARK   75  A    between atoms: _216  and  _217
REMARK   76  A    between atoms: _222  and  _223
REMARK   77  A    between atoms: _225  and  _227
REMARK   78  A    between atoms: _227  and  _228
REMARK   79  A    between atoms: _227  and  _230
REMARK   80  A    between atoms: _230  and  _231
REMARK   81  A    between atoms: _231  and  _232
REMARK   82  A    between atoms: _232  and  _233
REMARK   83  A    between atoms: _242  and  _244
REMARK   84  A    between atoms: _244  and  _245
REMARK   85  A    between atoms: _244  and  _247
REMARK   86  A    between atoms: _247  and  _248
REMARK   87  A    between atoms: _253  and  _254
REMARK   88  A    between atoms: _256  and  _258
REMARK   89  A    between atoms: _258  and  _259
REMARK   90  A    between atoms: _258  and  _261
REMARK   91  A    between atoms: _261  and  _262
REMARK   92  A    between atoms: _265  and  _267
REMARK   93  A    between atoms: _267  and  _268
REMARK   94  A    between atoms: _267  and  _270
REMARK   95  A    between atoms: _270  and  _271
REMARK   96  A    between atoms: _276  and  _277
REMARK                            x       y       z     vdW  Elec       q    Type
REMARK                         _______ _______ _______ _____ _____    ______ ____
ROOT
ATOM      1  O   HOH     1      22.510 -12.340  36.927  0.00  0.00    +0.000 OA
ENDROOT
TORSDOF 0
REMARK  Name = ../refined-set-2016/1ceb/1ceb_pocket.pdb
REMARK  96 active torsions:
REMARK  status: ('A' for Active; 'I' for Inactive)
REMARK    1  A    between atoms: _1  and  _3
REMARK    2  A    between atoms: _3  and  _4
REMARK    3  A    between atoms: _3  and  _6
REMARK    4  A    between atoms: _6  and  _7
REMARK    5  A    between atoms: _17  and  _19
REMARK    6  A    between atoms: _19  and  _20
REMARK    7  A    between atoms: _19  and  _22
REMARK    8  A    between atoms: _22  and  _23
REMARK    9  A    between atoms: _28  and  _30
REMARK   10  A    between atoms: _30  and  _31
REMARK   11  A    between atoms: _30  and  _33
REMARK   12  A    between atoms: _33  and  _34
REMARK   13  A    between atoms: _34  and  _35
REMARK   14  A    between atoms: _35  and  _36
REMARK   15  A    between atoms: _46  and  _47
REMARK   16  A    between atoms: _52  and  _54
REMARK   17  A    between atoms: _54  and  _55
REMARK   18  A    between atoms: _54  and  _57
REMARK   19  A    between atoms: _57  and  _58
REMARK   20  A    between atoms: _58  and  _59
REMARK   21  A    between atoms: _59  and  _60
REMARK   22  A    between atoms: _69  and  _71
REMARK   23  A    between atoms: _71  and  _72
REMARK   24  A    between atoms: _71  and  _74
REMARK   25  A    between atoms: _74  and  _75
REMARK   26  A    between atoms: _81  and  _83
REMARK   27  A    between atoms: _83  and  _84
REMARK   28  A    between atoms: _83  and  _86
REMARK   29  A    between atoms: _86  and  _87
REMARK   30  A    between atoms: _89  and  _91
REMARK   31  A    between atoms: _91  and  _92
REMARK   32  A    between atoms: _91  and  _94
REMARK   33  A    between atoms: _94  and  _95
REMARK   34  A    between atoms: _100  and  _102
REMARK   35  A    between atoms: _102  and  _103
REMARK   36  A    between atoms: _102  and  _105
REMARK   37  A    between atoms: _105  and  _106
REMARK   38  A    between atoms: _106  and  _107
REMARK   39  A    between atoms: _107  and  _108
REMARK   40  A    between atoms: _117  and  _119
REMARK   41  A    between atoms: _119  and  _120
REMARK   42  A    between atoms: _119  and  _122
REMARK   43  A    between atoms: _122  and  _123
REMARK   44  A    between atoms: _129  and  _130
REMARK   45  A    between atoms: _135  and  _137
REMARK   46  A    between atoms: _137  and  _138
REMARK   47  A    between atoms: _137  and  _140
REMARK   48  A    between atoms: _140  and  _141
REMARK   49  A    between atoms: _144  and  _146
REMARK   50  A    between atoms: _146  and  _147
REMARK   51  A    between atoms: _146  and  _149
REMARK   52  A    between atoms: _149  and  _150
REMARK   53  A    between atoms: _155  and  _157
REMARK   54  A    between atoms: _157  and  _158
REMARK   55  A    between atoms: _157  and  _160
REMARK   56  A    between atoms: _160  and  _161
REMARK   57  A    between atoms: _165  and  _166
REMARK   58  A    between atoms: _171  and  _173
REMARK   59  A    between atoms: _173  and  _174
REMARK   60  A    between atoms: _173  and  _176
REMARK   61  A    between atoms: _176  and  _177
REMARK   62  A    between atoms: _177  and  _178
REMARK   63  A    between atoms: _183  and  _185
REMARK   64  A    between atoms: _185  and  _186
REMARK   65  A    between atoms: _188  and  _190
REMARK   66  A    between atoms: _190  and  _191
REMARK   67  A    between atoms: _190  and  _193
REMARK   68  A    between atoms: _193  and  _194
REMARK   69  A    between atoms: _204  and  _206
REMARK   70  A    between atoms: _206  and  _207
REMARK   71  A    between atoms: _206  and  _209
REMARK   72  A    between atoms: _211  and  _213
REMARK   73  A    between atoms: _213  and  _214
REMARK   74  A    between atoms: _213  and  _216
REMARK   75  A    between atoms: _216  and  _217
REMARK   76  A    between atoms: _222  and  _223
REMARK   77  A    between atoms: _225  and  _227
REMARK   78  A    between atoms: _227  and  _228
REMARK   79  A    between atoms: _227  and  _230
REMARK   80  A    between atoms: _230  and  _231
REMARK   81  A    between atoms: _231  and  _232
REMARK   82  A    between atoms: _232  and  _233
REMARK   83  A    between atoms: _242  and  _244
REMARK   84  A    between atoms: _244  and  _245
REMARK   85  A    between atoms: _244  and  _247
REMARK   86  A    between atoms: _247  and  _248
REMARK   87  A    between atoms: _253  and  _254
REMARK   88  A    between atoms: _256  and  _258
REMARK   89  A    between atoms: _258  and  _259
REMARK   90  A    between atoms: _258  and  _261
REMARK   91  A    between atoms: _261  and  _262
REMARK   92  A    between atoms: _265  and  _267
REMARK   93  A    between atoms: _267  and  _268
REMARK   94  A    between atoms: _267  and  _270
REMARK   95  A    between atoms: _270  and  _271
REMARK   96  A    between atoms: _276  and  _277
REMARK                            x       y       z     vdW  Elec       q    Type
REMARK                         _______ _______ _______ _____ _____    ______ ____
ROOT
ATOM      1  O   HOH     1      26.005   3.293  39.498  0.00  0.00    +0.000 OA
ENDROOT
TORSDOF 0
REMARK  Name = ../refined-set-2016/1ceb/1ceb_pocket.pdb
REMARK  96 active torsions:
REMARK  status: ('A' for Active; 'I' for Inactive)
REMARK    1  A    between atoms: _1  and  _3
REMARK    2  A    between atoms: _3  and  _4
REMARK    3  A    between atoms: _3  and  _6
REMARK    4  A    between atoms: _6  and  _7
REMARK    5  A    between atoms: _17  and  _19
REMARK    6  A    between atoms: _19  and  _20
REMARK    7  A    between atoms: _19  and  _22
REMARK    8  A    between atoms: _22  and  _23
REMARK    9  A    between atoms: _28  and  _30
REMARK   10  A    between atoms: _30  and  _31
REMARK   11  A    between atoms: _30  and  _33
REMARK   12  A    between atoms: _33  and  _34
REMARK   13  A    between atoms: _34  and  _35
REMARK   14  A    between atoms: _35  and  _36
REMARK   15  A    between atoms: _46  and  _47
REMARK   16  A    between atoms: _52  and  _54
REMARK   17  A    between atoms: _54  and  _55
REMARK   18  A    between atoms: _54  and  _57
REMARK   19  A    between atoms: _57  and  _58
REMARK   20  A    between atoms: _58  and  _59
REMARK   21  A    between atoms: _59  and  _60
REMARK   22  A    between atoms: _69  and  _71
REMARK   23  A    between atoms: _71  and  _72
REMARK   24  A    between atoms: _71  and  _74
REMARK   25  A    between atoms: _74  and  _75
REMARK   26  A    between atoms: _81  and  _83
REMARK   27  A    between atoms: _83  and  _84
REMARK   28  A    between atoms: _83  and  _86
REMARK   29  A    between atoms: _86  and  _87
REMARK   30  A    between atoms: _89  and  _91
REMARK   31  A    between atoms: _91  and  _92
REMARK   32  A    between atoms: _91  and  _94
REMARK   33  A    between atoms: _94  and  _95
REMARK   34  A    between atoms: _100  and  _102
REMARK   35  A    between atoms: _102  and  _103
REMARK   36  A    between atoms: _102  and  _105
REMARK   37  A    between atoms: _105  and  _106
REMARK   38  A    between atoms: _106  and  _107
REMARK   39  A    between atoms: _107  and  _108
REMARK   40  A    between atoms: _117  and  _119
REMARK   41  A    between atoms: _119  and  _120
REMARK   42  A    between atoms: _119  and  _122
REMARK   43  A    between atoms: _122  and  _123
REMARK   44  A    between atoms: _129  and  _130
REMARK   45  A    between atoms: _135  and  _137
REMARK   46  A    between atoms: _137  and  _138
REMARK   47  A    between atoms: _137  and  _140
REMARK   48  A    between atoms: _140  and  _141
REMARK   49  A    between atoms: _144  and  _146
REMARK   50  A    between atoms: _146  and  _147
REMARK   51  A    between atoms: _146  and  _149
REMARK   52  A    between atoms: _149  and  _150
REMARK   53  A    between atoms: _155  and  _157
REMARK   54  A    between atoms: _157  and  _158
REMARK   55  A    between atoms: _157  and  _160
REMARK   56  A    between atoms: _160  and  _161
REMARK   57  A    between atoms: _165  and  _166
REMARK   58  A    between atoms: _171  and  _173
REMARK   59  A    between atoms: _173  and  _174
REMARK   60  A    between atoms: _173  and  _176
REMARK   61  A    between atoms: _176  and  _177
REMARK   62  A    between atoms: _177  and  _178
REMARK   63  A    between atoms: _183  and  _185
REMARK   64  A    between atoms: _185  and  _186
REMARK   65  A    between atoms: _188  and  _190
REMARK   66  A    between atoms: _190  and  _191
REMARK   67  A    between atoms: _190  and  _193
REMARK   68  A    between atoms: _193  and  _194
REMARK   69  A    between atoms: _204  and  _206
REMARK   70  A    between atoms: _206  and  _207
REMARK   71  A    between atoms: _206  and  _209
REMARK   72  A    between atoms: _211  and  _213
REMARK   73  A    between atoms: _213  and  _214
REMARK   74  A    between atoms: _213  and  _216
REMARK   75  A    between atoms: _216  and  _217
REMARK   76  A    between atoms: _222  and  _223
REMARK   77  A    between atoms: _225  and  _227
REMARK   78  A    between atoms: _227  and  _228
REMARK   79  A    between atoms: _227  and  _230
REMARK   80  A    between atoms: _230  and  _231
REMARK   81  A    between atoms: _231  and  _232
REMARK   82  A    between atoms: _232  and  _233
REMARK   83  A    between atoms: _242  and  _244
REMARK   84  A    between atoms: _244  and  _245
REMARK   85  A    between atoms: _244  and  _247
REMARK   86  A    between atoms: _247  and  _248
REMARK   87  A    between atoms: _253  and  _254
REMARK   88  A    between atoms: _256  and  _258
REMARK   89  A    between atoms: _258  and  _259
REMARK   90  A    between atoms: _258  and  _261
REMARK   91  A    between atoms: _261  and  _262
REMARK   92  A    between atoms: _265  and  _267
REMARK   93  A    between atoms: _267  and  _268
REMARK   94  A    between atoms: _267  and  _270
REMARK   95  A    between atoms: _270  and  _271
REMARK   96  A    between atoms: _276  and  _277
REMARK                            x       y       z     vdW  Elec       q    Type
REMARK                         _______ _______ _______ _____ _____    ______ ____
ROOT
ATOM      1  O   HOH     1      30.651  -6.111  37.851  0.00  0.00    +0.000 OA
ENDROOT
TORSDOF 0
REMARK  Name = ../refined-set-2016/1ceb/1ceb_pocket.pdb
REMARK  96 active torsions:
REMARK  status: ('A' for Active; 'I' for Inactive)
REMARK    1  A    between atoms: _1  and  _3
REMARK    2  A    between atoms: _3  and  _4
REMARK    3  A    between atoms: _3  and  _6
REMARK    4  A    between atoms: _6  and  _7
REMARK    5  A    between atoms: _17  and  _19
REMARK    6  A    between atoms: _19  and  _20
REMARK    7  A    between atoms: _19  and  _22
REMARK    8  A    between atoms: _22  and  _23
REMARK    9  A    between atoms: _28  and  _30
REMARK   10  A    between atoms: _30  and  _31
REMARK   11  A    between atoms: _30  and  _33
REMARK   12  A    between atoms: _33  and  _34
REMARK   13  A    between atoms: _34  and  _35
REMARK   14  A    between atoms: _35  and  _36
REMARK   15  A    between atoms: _46  and  _47
REMARK   16  A    between atoms: _52  and  _54
REMARK   17  A    between atoms: _54  and  _55
REMARK   18  A    between atoms: _54  and  _57
REMARK   19  A    between atoms: _57  and  _58
REMARK   20  A    between atoms: _58  and  _59
REMARK   21  A    between atoms: _59  and  _60
REMARK   22  A    between atoms: _69  and  _71
REMARK   23  A    between atoms: _71  and  _72
REMARK   24  A    between atoms: _71  and  _74
REMARK   25  A    between atoms: _74  and  _75
REMARK   26  A    between atoms: _81  and  _83
REMARK   27  A    between atoms: _83  and  _84
REMARK   28  A    between atoms: _83  and  _86
REMARK   29  A    between atoms: _86  and  _87
REMARK   30  A    between atoms: _89  and  _91
REMARK   31  A    between atoms: _91  and  _92
REMARK   32  A    between atoms: _91  and  _94
REMARK   33  A    between atoms: _94  and  _95
REMARK   34  A    between atoms: _100  and  _102
REMARK   35  A    between atoms: _102  and  _103
REMARK   36  A    between atoms: _102  and  _105
REMARK   37  A    between atoms: _105  and  _106
REMARK   38  A    between atoms: _106  and  _107
REMARK   39  A    between atoms: _107  and  _108
REMARK   40  A    between atoms: _117  and  _119
REMARK   41  A    between atoms: _119  and  _120
REMARK   42  A    between atoms: _119  and  _122
REMARK   43  A    between atoms: _122  and  _123
REMARK   44  A    between atoms: _129  and  _130
REMARK   45  A    between atoms: _135  and  _137
REMARK   46  A    between atoms: _137  and  _138
REMARK   47  A    between atoms: _137  and  _140
REMARK   48  A    between atoms: _140  and  _141
REMARK   49  A    between atoms: _144  and  _146
REMARK   50  A    between atoms: _146  and  _147
REMARK   51  A    between atoms: _146  and  _149
REMARK   52  A    between atoms: _149  and  _150
REMARK   53  A    between atoms: _155  and  _157
REMARK   54  A    between atoms: _157  and  _158
REMARK   55  A    between atoms: _157  and  _160
REMARK   56  A    between atoms: _160  and  _161
REMARK   57  A    between atoms: _165  and  _166
REMARK   58  A    between atoms: _171  and  _173
REMARK   59  A    between atoms: _173  and  _174
REMARK   60  A    between atoms: _173  and  _176
REMARK   61  A    between atoms: _176  and  _177
REMARK   62  A    between atoms: _177  and  _178
REMARK   63  A    between atoms: _183  and  _185
REMARK   64  A    between atoms: _185  and  _186
REMARK   65  A    between atoms: _188  and  _190
REMARK   66  A    between atoms: _190  and  _191
REMARK   67  A    between atoms: _190  and  _193
REMARK   68  A    between atoms: _193  and  _194
REMARK   69  A    between atoms: _204  and  _206
REMARK   70  A    between atoms: _206  and  _207
REMARK   71  A    between atoms: _206  and  _209
REMARK   72  A    between atoms: _211  and  _213
REMARK   73  A    between atoms: _213  and  _214
REMARK   74  A    between atoms: _213  and  _216
REMARK   75  A    between atoms: _216  and  _217
REMARK   76  A    between atoms: _222  and  _223
REMARK   77  A    between atoms: _225  and  _227
REMARK   78  A    between atoms: _227  and  _228
REMARK   79  A    between atoms: _227  and  _230
REMARK   80  A    between atoms: _230  and  _231
REMARK   81  A    between atoms: _231  and  _232
REMARK   82  A    between atoms: _232  and  _233
REMARK   83  A    between atoms: _242  and  _244
REMARK   84  A    between atoms: _244  and  _245
REMARK   85  A    between atoms: _244  and  _247
REMARK   86  A    between atoms: _247  and  _248
REMARK   87  A    between atoms: _253  and  _254
REMARK   88  A    between atoms: _256  and  _258
REMARK   89  A    between atoms: _258  and  _259
REMARK   90  A    between atoms: _258  and  _261
REMARK   91  A    between atoms: _261  and  _262
REMARK   92  A    between atoms: _265  and  _267
REMARK   93  A    between atoms: _267  and  _268
REMARK   94  A    between atoms: _267  and  _270
REMARK   95  A    between atoms: _270  and  _271
REMARK   96  A    between atoms: _276  and  _277
REMARK                            x       y       z     vdW  Elec       q    Type
REMARK                         _______ _______ _______ _____ _____    ______ ____
ROOT
ATOM      1  O   HOH     1      29.802  -0.945  42.238  0.00  0.00    +0.000 OA
ENDROOT
TORSDOF 0
REMARK  Name = ../refined-set-2016/1ceb/1ceb_pocket.pdb
REMARK  96 active torsions:
REMARK  status: ('A' for Active; 'I' for Inactive)
REMARK    1  A    between atoms: _1  and  _3
REMARK    2  A    between atoms: _3  and  _4
REMARK    3  A    between atoms: _3  and  _6
REMARK    4  A    between atoms: _6  and  _7
REMARK    5  A    between atoms: _17  and  _19
REMARK    6  A    between atoms: _19  and  _20
REMARK    7  A    between atoms: _19  and  _22
REMARK    8  A    between atoms: _22  and  _23
REMARK    9  A    between atoms: _28  and  _30
REMARK   10  A    between atoms: _30  and  _31
REMARK   11  A    between atoms: _30  and  _33
REMARK   12  A    between atoms: _33  and  _34
REMARK   13  A    between atoms: _34  and  _35
REMARK   14  A    between atoms: _35  and  _36
REMARK   15  A    between atoms: _46  and  _47
REMARK   16  A    between atoms: _52  and  _54
REMARK   17  A    between atoms: _54  and  _55
REMARK   18  A    between atoms: _54  and  _57
REMARK   19  A    between atoms: _57  and  _58
REMARK   20  A    between atoms: _58  and  _59
REMARK   21  A    between atoms: _59  and  _60
REMARK   22  A    between atoms: _69  and  _71
REMARK   23  A    between atoms: _71  and  _72
REMARK   24  A    between atoms: _71  and  _74
REMARK   25  A    between atoms: _74  and  _75
REMARK   26  A    between atoms: _81  and  _83
REMARK   27  A    between atoms: _83  and  _84
REMARK   28  A    between atoms: _83  and  _86
REMARK   29  A    between atoms: _86  and  _87
REMARK   30  A    between atoms: _89  and  _91
REMARK   31  A    between atoms: _91  and  _92
REMARK   32  A    between atoms: _91  and  _94
REMARK   33  A    between atoms: _94  and  _95
REMARK   34  A    between atoms: _100  and  _102
REMARK   35  A    between atoms: _102  and  _103
REMARK   36  A    between atoms: _102  and  _105
REMARK   37  A    between atoms: _105  and  _106
REMARK   38  A    between atoms: _106  and  _107
REMARK   39  A    between atoms: _107  and  _108
REMARK   40  A    between atoms: _117  and  _119
REMARK   41  A    between atoms: _119  and  _120
REMARK   42  A    between atoms: _119  and  _122
REMARK   43  A    between atoms: _122  and  _123
REMARK   44  A    between atoms: _129  and  _130
REMARK   45  A    between atoms: _135  and  _137
REMARK   46  A    between atoms: _137  and  _138
REMARK   47  A    between atoms: _137  and  _140
REMARK   48  A    between atoms: _140  and  _141
REMARK   49  A    between atoms: _144  and  _146
REMARK   50  A    between atoms: _146  and  _147
REMARK   51  A    between atoms: _146  and  _149
REMARK   52  A    between atoms: _149  and  _150
REMARK   53  A    between atoms: _155  and  _157
REMARK   54  A    between atoms: _157  and  _158
REMARK   55  A    between atoms: _157  and  _160
REMARK   56  A    between atoms: _160  and  _161
REMARK   57  A    between atoms: _165  and  _166
REMARK   58  A    between atoms: _171  and  _173
REMARK   59  A    between atoms: _173  and  _174
REMARK   60  A    between atoms: _173  and  _176
REMARK   61  A    between atoms: _176  and  _177
REMARK   62  A    between atoms: _177  and  _178
REMARK   63  A    between atoms: _183  and  _185
REMARK   64  A    between atoms: _185  and  _186
REMARK   65  A    between atoms: _188  and  _190
REMARK   66  A    between atoms: _190  and  _191
REMARK   67  A    between atoms: _190  and  _193
REMARK   68  A    between atoms: _193  and  _194
REMARK   69  A    between atoms: _204  and  _206
REMARK   70  A    between atoms: _206  and  _207
REMARK   71  A    between atoms: _206  and  _209
REMARK   72  A    between atoms: _211  and  _213
REMARK   73  A    between atoms: _213  and  _214
REMARK   74  A    between atoms: _213  and  _216
REMARK   75  A    between atoms: _216  and  _217
REMARK   76  A    between atoms: _222  and  _223
REMARK   77  A    between atoms: _225  and  _227
REMARK   78  A    between atoms: _227  and  _228
REMARK   79  A    between atoms: _227  and  _230
REMARK   80  A    between atoms: _230  and  _231
REMARK   81  A    between atoms: _231  and  _232
REMARK   82  A    between atoms: _232  and  _233
REMARK   83  A    between atoms: _242  and  _244
REMARK   84  A    between atoms: _244  and  _245
REMARK   85  A    between atoms: _244  and  _247
REMARK   86  A    between atoms: _247  and  _248
REMARK   87  A    between atoms: _253  and  _254
REMARK   88  A    between atoms: _256  and  _258
REMARK   89  A    between atoms: _258  and  _259
REMARK   90  A    between atoms: _258  and  _261
REMARK   91  A    between atoms: _261  and  _262
REMARK   92  A    between atoms: _265  and  _267
REMARK   93  A    between atoms: _267  and  _268
REMARK   94  A    between atoms: _267  and  _270
REMARK   95  A    between atoms: _270  and  _271
REMARK   96  A    between atoms: _276  and  _277
REMARK                            x       y       z     vdW  Elec       q    Type
REMARK                         _______ _______ _______ _____ _____    ______ ____
ROOT
ATOM      1  O   HOH     1      12.189  -4.579  44.772  0.00  0.00    +0.000 OA
ENDROOT
TORSDOF 0
REMARK  Name = ../refined-set-2016/1ceb/1ceb_pocket.pdb
REMARK  96 active torsions:
REMARK  status: ('A' for Active; 'I' for Inactive)
REMARK    1  A    between atoms: _1  and  _3
REMARK    2  A    between atoms: _3  and  _4
REMARK    3  A    between atoms: _3  and  _6
REMARK    4  A    between atoms: _6  and  _7
REMARK    5  A    between atoms: _17  and  _19
REMARK    6  A    between atoms: _19  and  _20
REMARK    7  A    between atoms: _19  and  _22
REMARK    8  A    between atoms: _22  and  _23
REMARK    9  A    between atoms: _28  and  _30
REMARK   10  A    between atoms: _30  and  _31
REMARK   11  A    between atoms: _30  and  _33
REMARK   12  A    between atoms: _33  and  _34
REMARK   13  A    between atoms: _34  and  _35
REMARK   14  A    between atoms: _35  and  _36
REMARK   15  A    between atoms: _46  and  _47
REMARK   16  A    between atoms: _52  and  _54
REMARK   17  A    between atoms: _54  and  _55
REMARK   18  A    between atoms: _54  and  _57
REMARK   19  A    between atoms: _57  and  _58
REMARK   20  A    between atoms: _58  and  _59
REMARK   21  A    between atoms: _59  and  _60
REMARK   22  A    between atoms: _69  and  _71
REMARK   23  A    between atoms: _71  and  _72
REMARK   24  A    between atoms: _71  and  _74
REMARK   25  A    between atoms: _74  and  _75
REMARK   26  A    between atoms: _81  and  _83
REMARK   27  A    between atoms: _83  and  _84
REMARK   28  A    between atoms: _83  and  _86
REMARK   29  A    between atoms: _86  and  _87
REMARK   30  A    between atoms: _89  and  _91
REMARK   31  A    between atoms: _91  and  _92
REMARK   32  A    between atoms: _91  and  _94
REMARK   33  A    between atoms: _94  and  _95
REMARK   34  A    between atoms: _100  and  _102
REMARK   35  A    between atoms: _102  and  _103
REMARK   36  A    between atoms: _102  and  _105
REMARK   37  A    between atoms: _105  and  _106
REMARK   38  A    between atoms: _106  and  _107
REMARK   39  A    between atoms: _107  and  _108
REMARK   40  A    between atoms: _117  and  _119
REMARK   41  A    between atoms: _119  and  _120
REMARK   42  A    between atoms: _119  and  _122
REMARK   43  A    between atoms: _122  and  _123
REMARK   44  A    between atoms: _129  and  _130
REMARK   45  A    between atoms: _135  and  _137
REMARK   46  A    between atoms: _137  and  _138
REMARK   47  A    between atoms: _137  and  _140
REMARK   48  A    between atoms: _140  and  _141
REMARK   49  A    between atoms: _144  and  _146
REMARK   50  A    between atoms: _146  and  _147
REMARK   51  A    between atoms: _146  and  _149
REMARK   52  A    between atoms: _149  and  _150
REMARK   53  A    between atoms: _155  and  _157
REMARK   54  A    between atoms: _157  and  _158
REMARK   55  A    between atoms: _157  and  _160
REMARK   56  A    between atoms: _160  and  _161
REMARK   57  A    between atoms: _165  and  _166
REMARK   58  A    between atoms: _171  and  _173
REMARK   59  A    between atoms: _173  and  _174
REMARK   60  A    between atoms: _173  and  _176
REMARK   61  A    between atoms: _176  and  _177
REMARK   62  A    between atoms: _177  and  _178
REMARK   63  A    between atoms: _183  and  _185
REMARK   64  A    between atoms: _185  and  _186
REMARK   65  A    between atoms: _188  and  _190
REMARK   66  A    between atoms: _190  and  _191
REMARK   67  A    between atoms: _190  and  _193
REMARK   68  A    between atoms: _193  and  _194
REMARK   69  A    between atoms: _204  and  _206
REMARK   70  A    between atoms: _206  and  _207
REMARK   71  A    between atoms: _206  and  _209
REMARK   72  A    between atoms: _211  and  _213
REMARK   73  A    between atoms: _213  and  _214
REMARK   74  A    between atoms: _213  and  _216
REMARK   75  A    between atoms: _216  and  _217
REMARK   76  A    between atoms: _222  and  _223
REMARK   77  A    between atoms: _225  and  _227
REMARK   78  A    between atoms: _227  and  _228
REMARK   79  A    between atoms: _227  and  _230
REMARK   80  A    between atoms: _230  and  _231
REMARK   81  A    between atoms: _231  and  _232
REMARK   82  A    between atoms: _232  and  _233
REMARK   83  A    between atoms: _242  and  _244
REMARK   84  A    between atoms: _244  and  _245
REMARK   85  A    between atoms: _244  and  _247
REMARK   86  A    between atoms: _247  and  _248
REMARK   87  A    between atoms: _253  and  _254
REMARK   88  A    between atoms: _256  and  _258
REMARK   89  A    between atoms: _258  and  _259
REMARK   90  A    between atoms: _258  and  _261
REMARK   91  A    between atoms: _261  and  _262
REMARK   92  A    between atoms: _265  and  _267
REMARK   93  A    between atoms: _267  and  _268
REMARK   94  A    between atoms: _267  and  _270
REMARK   95  A    between atoms: _270  and  _271
REMARK   96  A    between atoms: _276  and  _277
REMARK                            x       y       z     vdW  Elec       q    Type
REMARK                         _______ _______ _______ _____ _____    ______ ____
ROOT
ATOM      1  O   HOH     1      22.410 -12.936  40.318  0.00  0.00    +0.000 OA
ENDROOT
TORSDOF 0
REMARK  Name = ../refined-set-2016/1ceb/1ceb_pocket.pdb
REMARK  96 active torsions:
REMARK  status: ('A' for Active; 'I' for Inactive)
REMARK    1  A    between atoms: _1  and  _3
REMARK    2  A    between atoms: _3  and  _4
REMARK    3  A    between atoms: _3  and  _6
REMARK    4  A    between atoms: _6  and  _7
REMARK    5  A    between atoms: _17  and  _19
REMARK    6  A    between atoms: _19  and  _20
REMARK    7  A    between atoms: _19  and  _22
REMARK    8  A    between atoms: _22  and  _23
REMARK    9  A    between atoms: _28  and  _30
REMARK   10  A    between atoms: _30  and  _31
REMARK   11  A    between atoms: _30  and  _33
REMARK   12  A    between atoms: _33  and  _34
REMARK   13  A    between atoms: _34  and  _35
REMARK   14  A    between atoms: _35  and  _36
REMARK   15  A    between atoms: _46  and  _47
REMARK   16  A    between atoms: _52  and  _54
REMARK   17  A    between atoms: _54  and  _55
REMARK   18  A    between atoms: _54  and  _57
REMARK   19  A    between atoms: _57  and  _58
REMARK   20  A    between atoms: _58  and  _59
REMARK   21  A    between atoms: _59  and  _60
REMARK   22  A    between atoms: _69  and  _71
REMARK   23  A    between atoms: _71  and  _72
REMARK   24  A    between atoms: _71  and  _74
REMARK   25  A    between atoms: _74  and  _75
REMARK   26  A    between atoms: _81  and  _83
REMARK   27  A    between atoms: _83  and  _84
REMARK   28  A    between atoms: _83  and  _86
REMARK   29  A    between atoms: _86  and  _87
REMARK   30  A    between atoms: _89  and  _91
REMARK   31  A    between atoms: _91  and  _92
REMARK   32  A    between atoms: _91  and  _94
REMARK   33  A    between atoms: _94  and  _95
REMARK   34  A    between atoms: _100  and  _102
REMARK   35  A    between atoms: _102  and  _103
REMARK   36  A    between atoms: _102  and  _105
REMARK   37  A    between atoms: _105  and  _106
REMARK   38  A    between atoms: _106  and  _107
REMARK   39  A    between atoms: _107  and  _108
REMARK   40  A    between atoms: _117  and  _119
REMARK   41  A    between atoms: _119  and  _120
REMARK   42  A    between atoms: _119  and  _122
REMARK   43  A    between atoms: _122  and  _123
REMARK   44  A    between atoms: _129  and  _130
REMARK   45  A    between atoms: _135  and  _137
REMARK   46  A    between atoms: _137  and  _138
REMARK   47  A    between atoms: _137  and  _140
REMARK   48  A    between atoms: _140  and  _141
REMARK   49  A    between atoms: _144  and  _146
REMARK   50  A    between atoms: _146  and  _147
REMARK   51  A    between atoms: _146  and  _149
REMARK   52  A    between atoms: _149  and  _150
REMARK   53  A    between atoms: _155  and  _157
REMARK   54  A    between atoms: _157  and  _158
REMARK   55  A    between atoms: _157  and  _160
REMARK   56  A    between atoms: _160  and  _161
REMARK   57  A    between atoms: _165  and  _166
REMARK   58  A    between atoms: _171  and  _173
REMARK   59  A    between atoms: _173  and  _174
REMARK   60  A    between atoms: _173  and  _176
REMARK   61  A    between atoms: _176  and  _177
REMARK   62  A    between atoms: _177  and  _178
REMARK   63  A    between atoms: _183  and  _185
REMARK   64  A    between atoms: _185  and  _186
REMARK   65  A    between atoms: _188  and  _190
REMARK   66  A    between atoms: _190  and  _191
REMARK   67  A    between atoms: _190  and  _193
REMARK   68  A    between atoms: _193  and  _194
REMARK   69  A    between atoms: _204  and  _206
REMARK   70  A    between atoms: _206  and  _207
REMARK   71  A    between atoms: _206  and  _209
REMARK   72  A    between atoms: _211  and  _213
REMARK   73  A    between atoms: _213  and  _214
REMARK   74  A    between atoms: _213  and  _216
REMARK   75  A    between atoms: _216  and  _217
REMARK   76  A    between atoms: _222  and  _223
REMARK   77  A    between atoms: _225  and  _227
REMARK   78  A    between atoms: _227  and  _228
REMARK   79  A    between atoms: _227  and  _230
REMARK   80  A    between atoms: _230  and  _231
REMARK   81  A    between atoms: _231  and  _232
REMARK   82  A    between atoms: _232  and  _233
REMARK   83  A    between atoms: _242  and  _244
REMARK   84  A    between atoms: _244  and  _245
REMARK   85  A    between atoms: _244  and  _247
REMARK   86  A    between atoms: _247  and  _248
REMARK   87  A    between atoms: _253  and  _254
REMARK   88  A    between atoms: _256  and  _258
REMARK   89  A    between atoms: _258  and  _259
REMARK   90  A    between atoms: _258  and  _261
REMARK   91  A    between atoms: _261  and  _262
REMARK   92  A    between atoms: _265  and  _267
REMARK   93  A    between atoms: _267  and  _268
REMARK   94  A    between atoms: _267  and  _270
REMARK   95  A    between atoms: _270  and  _271
REMARK   96  A    between atoms: _276  and  _277
REMARK                            x       y       z     vdW  Elec       q    Type
REMARK                         _______ _______ _______ _____ _____    ______ ____
ROOT
ATOM      1  O   HOH     1      25.541  -3.060  42.612  0.00  0.00    +0.000 OA
ENDROOT
TORSDOF 0
REMARK  Name = ../refined-set-2016/1ceb/1ceb_pocket.pdb
REMARK  96 active torsions:
REMARK  status: ('A' for Active; 'I' for Inactive)
REMARK    1  A    between atoms: _1  and  _3
REMARK    2  A    between atoms: _3  and  _4
REMARK    3  A    between atoms: _3  and  _6
REMARK    4  A    between atoms: _6  and  _7
REMARK    5  A    between atoms: _17  and  _19
REMARK    6  A    between atoms: _19  and  _20
REMARK    7  A    between atoms: _19  and  _22
REMARK    8  A    between atoms: _22  and  _23
REMARK    9  A    between atoms: _28  and  _30
REMARK   10  A    between atoms: _30  and  _31
REMARK   11  A    between atoms: _30  and  _33
REMARK   12  A    between atoms: _33  and  _34
REMARK   13  A    between atoms: _34  and  _35
REMARK   14  A    between atoms: _35  and  _36
REMARK   15  A    between atoms: _46  and  _47
REMARK   16  A    between atoms: _52  and  _54
REMARK   17  A    between atoms: _54  and  _55
REMARK   18  A    between atoms: _54  and  _57
REMARK   19  A    between atoms: _57  and  _58
REMARK   20  A    between atoms: _58  and  _59
REMARK   21  A    between atoms: _59  and  _60
REMARK   22  A    between atoms: _69  and  _71
REMARK   23  A    between atoms: _71  and  _72
REMARK   24  A    between atoms: _71  and  _74
REMARK   25  A    between atoms: _74  and  _75
REMARK   26  A    between atoms: _81  and  _83
REMARK   27  A    between atoms: _83  and  _84
REMARK   28  A    between atoms: _83  and  _86
REMARK   29  A    between atoms: _86  and  _87
REMARK   30  A    between atoms: _89  and  _91
REMARK   31  A    between atoms: _91  and  _92
REMARK   32  A    between atoms: _91  and  _94
REMARK   33  A    between atoms: _94  and  _95
REMARK   34  A    between atoms: _100  and  _102
REMARK   35  A    between atoms: _102  and  _103
REMARK   36  A    between atoms: _102  and  _105
REMARK   37  A    between atoms: _105  and  _106
REMARK   38  A    between atoms: _106  and  _107
REMARK   39  A    between atoms: _107  and  _108
REMARK   40  A    between atoms: _117  and  _119
REMARK   41  A    between atoms: _119  and  _120
REMARK   42  A    between atoms: _119  and  _122
REMARK   43  A    between atoms: _122  and  _123
REMARK   44  A    between atoms: _129  and  _130
REMARK   45  A    between atoms: _135  and  _137
REMARK   46  A    between atoms: _137  and  _138
REMARK   47  A    between atoms: _137  and  _140
REMARK   48  A    between atoms: _140  and  _141
REMARK   49  A    between atoms: _144  and  _146
REMARK   50  A    between atoms: _146  and  _147
REMARK   51  A    between atoms: _146  and  _149
REMARK   52  A    between atoms: _149  and  _150
REMARK   53  A    between atoms: _155  and  _157
REMARK   54  A    between atoms: _157  and  _158
REMARK   55  A    between atoms: _157  and  _160
REMARK   56  A    between atoms: _160  and  _161
REMARK   57  A    between atoms: _165  and  _166
REMARK   58  A    between atoms: _171  and  _173
REMARK   59  A    between atoms: _173  and  _174
REMARK   60  A    between atoms: _173  and  _176
REMARK   61  A    between atoms: _176  and  _177
REMARK   62  A    between atoms: _177  and  _178
REMARK   63  A    between atoms: _183  and  _185
REMARK   64  A    between atoms: _185  and  _186
REMARK   65  A    between atoms: _188  and  _190
REMARK   66  A    between atoms: _190  and  _191
REMARK   67  A    between atoms: _190  and  _193
REMARK   68  A    between atoms: _193  and  _194
REMARK   69  A    between atoms: _204  and  _206
REMARK   70  A    between atoms: _206  and  _207
REMARK   71  A    between atoms: _206  and  _209
REMARK   72  A    between atoms: _211  and  _213
REMARK   73  A    between atoms: _213  and  _214
REMARK   74  A    between atoms: _213  and  _216
REMARK   75  A    between atoms: _216  and  _217
REMARK   76  A    between atoms: _222  and  _223
REMARK   77  A    between atoms: _225  and  _227
REMARK   78  A    between atoms: _227  and  _228
REMARK   79  A    between atoms: _227  and  _230
REMARK   80  A    between atoms: _230  and  _231
REMARK   81  A    between atoms: _231  and  _232
REMARK   82  A    between atoms: _232  and  _233
REMARK   83  A    between atoms: _242  and  _244
REMARK   84  A    between atoms: _244  and  _245
REMARK   85  A    between atoms: _244  and  _247
REMARK   86  A    between atoms: _247  and  _248
REMARK   87  A    between atoms: _253  and  _254
REMARK   88  A    between atoms: _256  and  _258
REMARK   89  A    between atoms: _258  and  _259
REMARK   90  A    between atoms: _258  and  _261
REMARK   91  A    between atoms: _261  and  _262
REMARK   92  A    between atoms: _265  and  _267
REMARK   93  A    between atoms: _267  and  _268
REMARK   94  A    between atoms: _267  and  _270
REMARK   95  A    between atoms: _270  and  _271
REMARK   96  A    between atoms: _276  and  _277
REMARK                            x       y       z     vdW  Elec       q    Type
REMARK                         _______ _______ _______ _____ _____    ______ ____
ROOT
ATOM      1  O   HOH     1      16.819  -3.892  44.598  0.00  0.00    +0.000 OA
ENDROOT
TORSDOF 0
