REMARK  Name = ../refined-set-2016/2afw/2afw_pocket.pdb
REMARK  133 active torsions:
REMARK  status: ('A' for Active; 'I' for Inactive)
REMARK    1  A    between atoms: _1  and  _3
REMARK    2  A    between atoms: _3  and  _4
REMARK    3  A    between atoms: _3  and  _6
REMARK    4  A    between atoms: _6  and  _7
REMARK    5  A    between atoms: _12  and  _14
REMARK    6  A    between atoms: _14  and  _15
REMARK    7  A    between atoms: _14  and  _17
REMARK    8  A    between atoms: _17  and  _18
REMARK    9  A    between atoms: _21  and  _23
REMARK   10  A    between atoms: _23  and  _24
REMARK   11  A    between atoms: _23  and  _26
REMARK   12  A    between atoms: _26  and  _27
REMARK   13  A    between atoms: _27  and  _28
REMARK   14  A    between atoms: _28  and  _29
REMARK   15  A    between atoms: _29  and  _30
REMARK   16  A    between atoms: _34  and  _36
REMARK   17  A    between atoms: _36  and  _37
REMARK   18  A    between atoms: _36  and  _39
REMARK   19  A    between atoms: _39  and  _40
REMARK   20  A    between atoms: _46  and  _48
REMARK   21  A    between atoms: _48  and  _49
REMARK   22  A    between atoms: _48  and  _51
REMARK   23  A    between atoms: _51  and  _52
REMARK   24  A    between atoms: _55  and  _57
REMARK   25  A    between atoms: _57  and  _58
REMARK   26  A    between atoms: _57  and  _60
REMARK   27  A    between atoms: _60  and  _61
REMARK   28  A    between atoms: _61  and  _63
REMARK   29  A    between atoms: _63  and  ZN_316
REMARK   30  A    between atoms: _64  and  _66
REMARK   31  A    between atoms: _66  and  _67
REMARK   32  A    between atoms: _66  and  _69
REMARK   33  A    between atoms: _69  and  _70
REMARK   34  A    between atoms: _72  and  _74
REMARK   35  A    between atoms: _74  and  _75
REMARK   36  A    between atoms: _74  and  _77
REMARK   37  A    between atoms: _77  and  _78
REMARK   38  A    between atoms: _78  and  _79
REMARK   39  A    between atoms: _82  and  _84
REMARK   40  A    between atoms: _84  and  _85
REMARK   41  A    between atoms: _84  and  _87
REMARK   42  A    between atoms: _87  and  _88
REMARK   43  A    between atoms: _88  and  _89
REMARK   44  A    between atoms: _89  and  _91
REMARK   45  A    between atoms: _91  and  ZN_316
REMARK   46  A    between atoms: _92  and  _94
REMARK   47  A    between atoms: _94  and  _95
REMARK   48  A    between atoms: _98  and  _100
REMARK   49  A    between atoms: _100  and  _101
REMARK   50  A    between atoms: _100  and  _103
REMARK   51  A    between atoms: _103  and  _104
REMARK   52  A    between atoms: _114  and  _116
REMARK   53  A    between atoms: _116  and  _117
REMARK   54  A    between atoms: _116  and  _119
REMARK   55  A    between atoms: _119  and  _120
REMARK   56  A    between atoms: _122  and  _124
REMARK   57  A    between atoms: _124  and  _125
REMARK   58  A    between atoms: _124  and  _127
REMARK   59  A    between atoms: _127  and  _128
REMARK   60  A    between atoms: _131  and  _133
REMARK   61  A    between atoms: _133  and  _134
REMARK   62  A    between atoms: _133  and  _136
REMARK   63  A    between atoms: _136  and  _137
REMARK   64  A    between atoms: _140  and  _142
REMARK   65  A    between atoms: _142  and  _143
REMARK   66  A    between atoms: _142  and  _145
REMARK   67  A    between atoms: _145  and  _146
REMARK   68  A    between atoms: _149  and  _151
REMARK   69  A    between atoms: _151  and  _152
REMARK   70  A    between atoms: _151  and  _154
REMARK   71  A    between atoms: _154  and  _155
REMARK   72  A    between atoms: _158  and  _160
REMARK   73  A    between atoms: _160  and  _161
REMARK   74  A    between atoms: _160  and  _163
REMARK   75  A    between atoms: _163  and  _164
REMARK   76  A    between atoms: _167  and  _169
REMARK   77  A    between atoms: _169  and  _170
REMARK   78  A    between atoms: _169  and  _172
REMARK   79  A    between atoms: _172  and  _173
REMARK   80  A    between atoms: _178  and  _179
REMARK   81  A    between atoms: _181  and  _183
REMARK   82  A    between atoms: _183  and  _184
REMARK   83  A    between atoms: _183  and  _186
REMARK   84  A    between atoms: _189  and  _191
REMARK   85  A    between atoms: _191  and  _192
REMARK   86  A    between atoms: _191  and  _194
REMARK   87  A    between atoms: _194  and  _195
REMARK   88  A    between atoms: _198  and  _200
REMARK   89  A    between atoms: _200  and  _201
REMARK   90  A    between atoms: _200  and  _203
REMARK   91  A    between atoms: _203  and  _204
REMARK   92  A    between atoms: _204  and  _205
REMARK   93  A    between atoms: _210  and  _212
REMARK   94  A    between atoms: _212  and  _213
REMARK   95  A    between atoms: _212  and  _215
REMARK   96  A    between atoms: _215  and  _216
REMARK   97  A    between atoms: _219  and  _221
REMARK   98  A    between atoms: _221  and  _222
REMARK   99  A    between atoms: _221  and  _224
REMARK  100  A    between atoms: _224  and  _225
REMARK  101  A    between atoms: _228  and  _230
REMARK  102  A    between atoms: _230  and  _231
REMARK  103  A    between atoms: _230  and  _233
REMARK  104  A    between atoms: _233  and  _234
REMARK  105  A    between atoms: _239  and  _241
REMARK  106  A    between atoms: _241  and  _242
REMARK  107  A    between atoms: _241  and  _244
REMARK  108  A    between atoms: _244  and  _245
REMARK  109  A    between atoms: _248  and  _250
REMARK  110  A    between atoms: _250  and  _251
REMARK  111  A    between atoms: _250  and  _253
REMARK  112  A    between atoms: _253  and  _254
REMARK  113  A    between atoms: _259  and  _261
REMARK  114  A    between atoms: _261  and  _262
REMARK  115  A    between atoms: _261  and  _264
REMARK  116  A    between atoms: _264  and  _265
REMARK  117  A    between atoms: _268  and  _270
REMARK  118  A    between atoms: _270  and  _271
REMARK  119  A    between atoms: _270  and  _273
REMARK  120  A    between atoms: _273  and  _274
REMARK  121  A    between atoms: _280  and  _282
REMARK  122  A    between atoms: _282  and  _283
REMARK  123  A    between atoms: _282  and  _285
REMARK  124  A    between atoms: _285  and  _286
REMARK  125  A    between atoms: _296  and  _298
REMARK  126  A    between atoms: _298  and  _299
REMARK  127  A    between atoms: _298  and  _301
REMARK  128  A    between atoms: _301  and  _302
REMARK  129  A    between atoms: _306  and  ZN_316
REMARK  130  A    between atoms: _307  and  _309
REMARK  131  A    between atoms: _309  and  _310
REMARK  132  A    between atoms: _309  and  _312
REMARK  133  A    between atoms: _312  and  _313
REMARK                            x       y       z     vdW  Elec       q    Type
REMARK                         _______ _______ _______ _____ _____    ______ ____
ROOT
ATOM      1  CB  HIS A   1     -21.479  -1.446  25.762  0.00  0.00    +0.072 C 
ENDROOT
BRANCH   1   2
ATOM      2  CG  HIS A   1     -21.485  -0.269  24.811  0.00  0.00    +0.082 A 
ATOM      3  ND1 HIS A   1     -22.197   0.890  25.063  0.00  0.00    -0.227 NA
ATOM      4  CE1 HIS A   1     -21.993   1.753  24.080  0.00  0.00    +0.199 A 
ATOM      5  NE2 HIS A   1     -21.176   1.205  23.198  0.00  0.00    -0.221 NA
ATOM      6  CD2 HIS A   1     -20.833  -0.060  23.636  0.00  0.00    +0.115 A 
ENDBRANCH   1   2
BRANCH   1   7
ATOM      7  CA  HIS A   1     -22.500  -2.577  25.454  0.00  0.00    +0.139 C 
BRANCH   7   8
ATOM      8  N   HIS A   1     -22.069  -3.398  24.327  0.00  0.00    -0.239 NA
ATOM      9  H   HIS A   1     -21.728  -2.957  23.449  0.00  0.00    +0.142 HD
ENDBRANCH   7   8
BRANCH   7  10
ATOM     10  C   HIS A   1     -23.891  -1.987  25.132  0.00  0.00    +0.224 C 
ATOM     11  O   HIS A   1     -24.161  -1.631  23.973  0.00  0.00    -0.287 OA
ENDBRANCH   7  10
ENDBRANCH   1   7
TORSDOF 4
REMARK  Name = ../refined-set-2016/2afw/2afw_pocket.pdb
REMARK  133 active torsions:
REMARK  status: ('A' for Active; 'I' for Inactive)
REMARK    1  A    between atoms: _1  and  _3
REMARK    2  A    between atoms: _3  and  _4
REMARK    3  A    between atoms: _3  and  _6
REMARK    4  A    between atoms: _6  and  _7
REMARK    5  A    between atoms: _12  and  _14
REMARK    6  A    between atoms: _14  and  _15
REMARK    7  A    between atoms: _14  and  _17
REMARK    8  A    between atoms: _17  and  _18
REMARK    9  A    between atoms: _21  and  _23
REMARK   10  A    between atoms: _23  and  _24
REMARK   11  A    between atoms: _23  and  _26
REMARK   12  A    between atoms: _26  and  _27
REMARK   13  A    between atoms: _27  and  _28
REMARK   14  A    between atoms: _28  and  _29
REMARK   15  A    between atoms: _29  and  _30
REMARK   16  A    between atoms: _34  and  _36
REMARK   17  A    between atoms: _36  and  _37
REMARK   18  A    between atoms: _36  and  _39
REMARK   19  A    between atoms: _39  and  _40
REMARK   20  A    between atoms: _46  and  _48
REMARK   21  A    between atoms: _48  and  _49
REMARK   22  A    between atoms: _48  and  _51
REMARK   23  A    between atoms: _51  and  _52
REMARK   24  A    between atoms: _55  and  _57
REMARK   25  A    between atoms: _57  and  _58
REMARK   26  A    between atoms: _57  and  _60
REMARK   27  A    between atoms: _60  and  _61
REMARK   28  A    between atoms: _61  and  _63
REMARK   29  A    between atoms: _63  and  ZN_316
REMARK   30  A    between atoms: _64  and  _66
REMARK   31  A    between atoms: _66  and  _67
REMARK   32  A    between atoms: _66  and  _69
REMARK   33  A    between atoms: _69  and  _70
REMARK   34  A    between atoms: _72  and  _74
REMARK   35  A    between atoms: _74  and  _75
REMARK   36  A    between atoms: _74  and  _77
REMARK   37  A    between atoms: _77  and  _78
REMARK   38  A    between atoms: _78  and  _79
REMARK   39  A    between atoms: _82  and  _84
REMARK   40  A    between atoms: _84  and  _85
REMARK   41  A    between atoms: _84  and  _87
REMARK   42  A    between atoms: _87  and  _88
REMARK   43  A    between atoms: _88  and  _89
REMARK   44  A    between atoms: _89  and  _91
REMARK   45  A    between atoms: _91  and  ZN_316
REMARK   46  A    between atoms: _92  and  _94
REMARK   47  A    between atoms: _94  and  _95
REMARK   48  A    between atoms: _98  and  _100
REMARK   49  A    between atoms: _100  and  _101
REMARK   50  A    between atoms: _100  and  _103
REMARK   51  A    between atoms: _103  and  _104
REMARK   52  A    between atoms: _114  and  _116
REMARK   53  A    between atoms: _116  and  _117
REMARK   54  A    between atoms: _116  and  _119
REMARK   55  A    between atoms: _119  and  _120
REMARK   56  A    between atoms: _122  and  _124
REMARK   57  A    between atoms: _124  and  _125
REMARK   58  A    between atoms: _124  and  _127
REMARK   59  A    between atoms: _127  and  _128
REMARK   60  A    between atoms: _131  and  _133
REMARK   61  A    between atoms: _133  and  _134
REMARK   62  A    between atoms: _133  and  _136
REMARK   63  A    between atoms: _136  and  _137
REMARK   64  A    between atoms: _140  and  _142
REMARK   65  A    between atoms: _142  and  _143
REMARK   66  A    between atoms: _142  and  _145
REMARK   67  A    between atoms: _145  and  _146
REMARK   68  A    between atoms: _149  and  _151
REMARK   69  A    between atoms: _151  and  _152
REMARK   70  A    between atoms: _151  and  _154
REMARK   71  A    between atoms: _154  and  _155
REMARK   72  A    between atoms: _158  and  _160
REMARK   73  A    between atoms: _160  and  _161
REMARK   74  A    between atoms: _160  and  _163
REMARK   75  A    between atoms: _163  and  _164
REMARK   76  A    between atoms: _167  and  _169
REMARK   77  A    between atoms: _169  and  _170
REMARK   78  A    between atoms: _169  and  _172
REMARK   79  A    between atoms: _172  and  _173
REMARK   80  A    between atoms: _178  and  _179
REMARK   81  A    between atoms: _181  and  _183
REMARK   82  A    between atoms: _183  and  _184
REMARK   83  A    between atoms: _183  and  _186
REMARK   84  A    between atoms: _189  and  _191
REMARK   85  A    between atoms: _191  and  _192
REMARK   86  A    between atoms: _191  and  _194
REMARK   87  A    between atoms: _194  and  _195
REMARK   88  A    between atoms: _198  and  _200
REMARK   89  A    between atoms: _200  and  _201
REMARK   90  A    between atoms: _200  and  _203
REMARK   91  A    between atoms: _203  and  _204
REMARK   92  A    between atoms: _204  and  _205
REMARK   93  A    between atoms: _210  and  _212
REMARK   94  A    between atoms: _212  and  _213
REMARK   95  A    between atoms: _212  and  _215
REMARK   96  A    between atoms: _215  and  _216
REMARK   97  A    between atoms: _219  and  _221
REMARK   98  A    between atoms: _221  and  _222
REMARK   99  A    between atoms: _221  and  _224
REMARK  100  A    between atoms: _224  and  _225
REMARK  101  A    between atoms: _228  and  _230
REMARK  102  A    between atoms: _230  and  _231
REMARK  103  A    between atoms: _230  and  _233
REMARK  104  A    between atoms: _233  and  _234
REMARK  105  A    between atoms: _239  and  _241
REMARK  106  A    between atoms: _241  and  _242
REMARK  107  A    between atoms: _241  and  _244
REMARK  108  A    between atoms: _244  and  _245
REMARK  109  A    between atoms: _248  and  _250
REMARK  110  A    between atoms: _250  and  _251
REMARK  111  A    between atoms: _250  and  _253
REMARK  112  A    between atoms: _253  and  _254
REMARK  113  A    between atoms: _259  and  _261
REMARK  114  A    between atoms: _261  and  _262
REMARK  115  A    between atoms: _261  and  _264
REMARK  116  A    between atoms: _264  and  _265
REMARK  117  A    between atoms: _268  and  _270
REMARK  118  A    between atoms: _270  and  _271
REMARK  119  A    between atoms: _270  and  _273
REMARK  120  A    between atoms: _273  and  _274
REMARK  121  A    between atoms: _280  and  _282
REMARK  122  A    between atoms: _282  and  _283
REMARK  123  A    between atoms: _282  and  _285
REMARK  124  A    between atoms: _285  and  _286
REMARK  125  A    between atoms: _296  and  _298
REMARK  126  A    between atoms: _298  and  _299
REMARK  127  A    between atoms: _298  and  _301
REMARK  128  A    between atoms: _301  and  _302
REMARK  129  A    between atoms: _306  and  ZN_316
REMARK  130  A    between atoms: _307  and  _309
REMARK  131  A    between atoms: _309  and  _310
REMARK  132  A    between atoms: _309  and  _312
REMARK  133  A    between atoms: _312  and  _313
REMARK                            x       y       z     vdW  Elec       q    Type
REMARK                         _______ _______ _______ _____ _____    ______ ____
ROOT
ATOM      1  CA  ASP A   1     -25.490   1.997  27.590  0.00  0.00    +0.144 C 
ENDROOT
BRANCH   1   2
ATOM      2  N   ASP A   1     -25.379   0.605  27.149  0.00  0.00    -0.239 NA
ATOM      3  H   ASP A   1     -24.554   0.036  27.429  0.00  0.00    +0.142 HD
ENDBRANCH   1   2
BRANCH   1   4
ATOM      4  C   ASP A   1     -25.172   2.904  26.401  0.00  0.00    +0.225 C 
ATOM      5  O   ASP A   1     -24.535   2.489  25.447  0.00  0.00    -0.287 OA
ENDBRANCH   1   4
BRANCH   1   6
ATOM      6  CB  ASP A   1     -24.501   2.317  28.744  0.00  0.00    +0.139 C 
BRANCH   6   7
ATOM      7  CG  ASP A   1     -23.039   2.162  28.341  0.00  0.00    +0.367 C 
ATOM      8  OD2 ASP A   1     -22.228   3.083  28.626  0.00  0.00    -0.246 OA
ATOM      9  OD1 ASP A   1     -22.694   1.109  27.753  0.00  0.00    -0.246 OA
ENDBRANCH   6   7
ENDBRANCH   1   6
TORSDOF 4
REMARK  Name = ../refined-set-2016/2afw/2afw_pocket.pdb
REMARK  133 active torsions:
REMARK  status: ('A' for Active; 'I' for Inactive)
REMARK    1  A    between atoms: _1  and  _3
REMARK    2  A    between atoms: _3  and  _4
REMARK    3  A    between atoms: _3  and  _6
REMARK    4  A    between atoms: _6  and  _7
REMARK    5  A    between atoms: _12  and  _14
REMARK    6  A    between atoms: _14  and  _15
REMARK    7  A    between atoms: _14  and  _17
REMARK    8  A    between atoms: _17  and  _18
REMARK    9  A    between atoms: _21  and  _23
REMARK   10  A    between atoms: _23  and  _24
REMARK   11  A    between atoms: _23  and  _26
REMARK   12  A    between atoms: _26  and  _27
REMARK   13  A    between atoms: _27  and  _28
REMARK   14  A    between atoms: _28  and  _29
REMARK   15  A    between atoms: _29  and  _30
REMARK   16  A    between atoms: _34  and  _36
REMARK   17  A    between atoms: _36  and  _37
REMARK   18  A    between atoms: _36  and  _39
REMARK   19  A    between atoms: _39  and  _40
REMARK   20  A    between atoms: _46  and  _48
REMARK   21  A    between atoms: _48  and  _49
REMARK   22  A    between atoms: _48  and  _51
REMARK   23  A    between atoms: _51  and  _52
REMARK   24  A    between atoms: _55  and  _57
REMARK   25  A    between atoms: _57  and  _58
REMARK   26  A    between atoms: _57  and  _60
REMARK   27  A    between atoms: _60  and  _61
REMARK   28  A    between atoms: _61  and  _63
REMARK   29  A    between atoms: _63  and  ZN_316
REMARK   30  A    between atoms: _64  and  _66
REMARK   31  A    between atoms: _66  and  _67
REMARK   32  A    between atoms: _66  and  _69
REMARK   33  A    between atoms: _69  and  _70
REMARK   34  A    between atoms: _72  and  _74
REMARK   35  A    between atoms: _74  and  _75
REMARK   36  A    between atoms: _74  and  _77
REMARK   37  A    between atoms: _77  and  _78
REMARK   38  A    between atoms: _78  and  _79
REMARK   39  A    between atoms: _82  and  _84
REMARK   40  A    between atoms: _84  and  _85
REMARK   41  A    between atoms: _84  and  _87
REMARK   42  A    between atoms: _87  and  _88
REMARK   43  A    between atoms: _88  and  _89
REMARK   44  A    between atoms: _89  and  _91
REMARK   45  A    between atoms: _91  and  ZN_316
REMARK   46  A    between atoms: _92  and  _94
REMARK   47  A    between atoms: _94  and  _95
REMARK   48  A    between atoms: _98  and  _100
REMARK   49  A    between atoms: _100  and  _101
REMARK   50  A    between atoms: _100  and  _103
REMARK   51  A    between atoms: _103  and  _104
REMARK   52  A    between atoms: _114  and  _116
REMARK   53  A    between atoms: _116  and  _117
REMARK   54  A    between atoms: _116  and  _119
REMARK   55  A    between atoms: _119  and  _120
REMARK   56  A    between atoms: _122  and  _124
REMARK   57  A    between atoms: _124  and  _125
REMARK   58  A    between atoms: _124  and  _127
REMARK   59  A    between atoms: _127  and  _128
REMARK   60  A    between atoms: _131  and  _133
REMARK   61  A    between atoms: _133  and  _134
REMARK   62  A    between atoms: _133  and  _136
REMARK   63  A    between atoms: _136  and  _137
REMARK   64  A    between atoms: _140  and  _142
REMARK   65  A    between atoms: _142  and  _143
REMARK   66  A    between atoms: _142  and  _145
REMARK   67  A    between atoms: _145  and  _146
REMARK   68  A    between atoms: _149  and  _151
REMARK   69  A    between atoms: _151  and  _152
REMARK   70  A    between atoms: _151  and  _154
REMARK   71  A    between atoms: _154  and  _155
REMARK   72  A    between atoms: _158  and  _160
REMARK   73  A    between atoms: _160  and  _161
REMARK   74  A    between atoms: _160  and  _163
REMARK   75  A    between atoms: _163  and  _164
REMARK   76  A    between atoms: _167  and  _169
REMARK   77  A    between atoms: _169  and  _170
REMARK   78  A    between atoms: _169  and  _172
REMARK   79  A    between atoms: _172  and  _173
REMARK   80  A    between atoms: _178  and  _179
REMARK   81  A    between atoms: _181  and  _183
REMARK   82  A    between atoms: _183  and  _184
REMARK   83  A    between atoms: _183  and  _186
REMARK   84  A    between atoms: _189  and  _191
REMARK   85  A    between atoms: _191  and  _192
REMARK   86  A    between atoms: _191  and  _194
REMARK   87  A    between atoms: _194  and  _195
REMARK   88  A    between atoms: _198  and  _200
REMARK   89  A    between atoms: _200  and  _201
REMARK   90  A    between atoms: _200  and  _203
REMARK   91  A    between atoms: _203  and  _204
REMARK   92  A    between atoms: _204  and  _205
REMARK   93  A    between atoms: _210  and  _212
REMARK   94  A    between atoms: _212  and  _213
REMARK   95  A    between atoms: _212  and  _215
REMARK   96  A    between atoms: _215  and  _216
REMARK   97  A    between atoms: _219  and  _221
REMARK   98  A    between atoms: _221  and  _222
REMARK   99  A    between atoms: _221  and  _224
REMARK  100  A    between atoms: _224  and  _225
REMARK  101  A    between atoms: _228  and  _230
REMARK  102  A    between atoms: _230  and  _231
REMARK  103  A    between atoms: _230  and  _233
REMARK  104  A    between atoms: _233  and  _234
REMARK  105  A    between atoms: _239  and  _241
REMARK  106  A    between atoms: _241  and  _242
REMARK  107  A    between atoms: _241  and  _244
REMARK  108  A    between atoms: _244  and  _245
REMARK  109  A    between atoms: _248  and  _250
REMARK  110  A    between atoms: _250  and  _251
REMARK  111  A    between atoms: _250  and  _253
REMARK  112  A    between atoms: _253  and  _254
REMARK  113  A    between atoms: _259  and  _261
REMARK  114  A    between atoms: _261  and  _262
REMARK  115  A    between atoms: _261  and  _264
REMARK  116  A    between atoms: _264  and  _265
REMARK  117  A    between atoms: _268  and  _270
REMARK  118  A    between atoms: _270  and  _271
REMARK  119  A    between atoms: _270  and  _273
REMARK  120  A    between atoms: _273  and  _274
REMARK  121  A    between atoms: _280  and  _282
REMARK  122  A    between atoms: _282  and  _283
REMARK  123  A    between atoms: _282  and  _285
REMARK  124  A    between atoms: _285  and  _286
REMARK  125  A    between atoms: _296  and  _298
REMARK  126  A    between atoms: _298  and  _299
REMARK  127  A    between atoms: _298  and  _301
REMARK  128  A    between atoms: _301  and  _302
REMARK  129  A    between atoms: _306  and  ZN_316
REMARK  130  A    between atoms: _307  and  _309
REMARK  131  A    between atoms: _309  and  _310
REMARK  132  A    between atoms: _309  and  _312
REMARK  133  A    between atoms: _312  and  _313
REMARK                            x       y       z     vdW  Elec       q    Type
REMARK                         _______ _______ _______ _____ _____    ______ ____
ROOT
ATOM      1  CG  LYS A   1     -20.571   9.264  25.779  0.00  0.00    -0.000 C 
ENDROOT
BRANCH   1   2
ATOM      2  CB  LYS A   1     -21.607   8.294  25.192  0.00  0.00    +0.025 C 
BRANCH   2   3
ATOM      3  CA  LYS A   1     -22.698   7.863  26.179  0.00  0.00    +0.133 C 
BRANCH   3   4
ATOM      4  N   LYS A   1     -23.550   6.828  25.553  0.00  0.00    -0.239 NA
ATOM      5  H   LYS A   1     -23.402   6.589  24.552  0.00  0.00    +0.142 HD
ENDBRANCH   3   4
BRANCH   3   6
ATOM      6  C   LYS A   1     -23.512   9.078  26.630  0.00  0.00    +0.224 C 
ATOM      7  O   LYS A   1     -24.386   9.581  25.901  0.00  0.00    -0.287 OA
ENDBRANCH   3   6
ENDBRANCH   2   3
ENDBRANCH   1   2
BRANCH   1   8
ATOM      8  CD  LYS A   1     -19.370   9.375  24.851  0.00  0.00    -0.024 C 
BRANCH   8   9
ATOM      9  CE  LYS A   1     -18.368  10.438  25.338  0.00  0.00    -0.086 C 
BRANCH   9  10
ATOM     10  NZ  LYS A   1     -17.850  10.116  26.700  0.00  0.00    +0.380 N 
ATOM     11  HZ1 LYS A   1     -18.643  10.078  27.371  0.00  0.00    -0.089 HD
ATOM     12  HZ2 LYS A   1     -17.178  10.852  26.997  0.00  0.00    -0.089 HD
ATOM     13  HZ3 LYS A   1     -17.369   9.194  26.678  0.00  0.00    -0.089 HD
ENDBRANCH   9  10
ENDBRANCH   8   9
ENDBRANCH   1   8
TORSDOF 7
REMARK  Name = ../refined-set-2016/2afw/2afw_pocket.pdb
REMARK  133 active torsions:
REMARK  status: ('A' for Active; 'I' for Inactive)
REMARK    1  A    between atoms: _1  and  _3
REMARK    2  A    between atoms: _3  and  _4
REMARK    3  A    between atoms: _3  and  _6
REMARK    4  A    between atoms: _6  and  _7
REMARK    5  A    between atoms: _12  and  _14
REMARK    6  A    between atoms: _14  and  _15
REMARK    7  A    between atoms: _14  and  _17
REMARK    8  A    between atoms: _17  and  _18
REMARK    9  A    between atoms: _21  and  _23
REMARK   10  A    between atoms: _23  and  _24
REMARK   11  A    between atoms: _23  and  _26
REMARK   12  A    between atoms: _26  and  _27
REMARK   13  A    between atoms: _27  and  _28
REMARK   14  A    between atoms: _28  and  _29
REMARK   15  A    between atoms: _29  and  _30
REMARK   16  A    between atoms: _34  and  _36
REMARK   17  A    between atoms: _36  and  _37
REMARK   18  A    between atoms: _36  and  _39
REMARK   19  A    between atoms: _39  and  _40
REMARK   20  A    between atoms: _46  and  _48
REMARK   21  A    between atoms: _48  and  _49
REMARK   22  A    between atoms: _48  and  _51
REMARK   23  A    between atoms: _51  and  _52
REMARK   24  A    between atoms: _55  and  _57
REMARK   25  A    between atoms: _57  and  _58
REMARK   26  A    between atoms: _57  and  _60
REMARK   27  A    between atoms: _60  and  _61
REMARK   28  A    between atoms: _61  and  _63
REMARK   29  A    between atoms: _63  and  ZN_316
REMARK   30  A    between atoms: _64  and  _66
REMARK   31  A    between atoms: _66  and  _67
REMARK   32  A    between atoms: _66  and  _69
REMARK   33  A    between atoms: _69  and  _70
REMARK   34  A    between atoms: _72  and  _74
REMARK   35  A    between atoms: _74  and  _75
REMARK   36  A    between atoms: _74  and  _77
REMARK   37  A    between atoms: _77  and  _78
REMARK   38  A    between atoms: _78  and  _79
REMARK   39  A    between atoms: _82  and  _84
REMARK   40  A    between atoms: _84  and  _85
REMARK   41  A    between atoms: _84  and  _87
REMARK   42  A    between atoms: _87  and  _88
REMARK   43  A    between atoms: _88  and  _89
REMARK   44  A    between atoms: _89  and  _91
REMARK   45  A    between atoms: _91  and  ZN_316
REMARK   46  A    between atoms: _92  and  _94
REMARK   47  A    between atoms: _94  and  _95
REMARK   48  A    between atoms: _98  and  _100
REMARK   49  A    between atoms: _100  and  _101
REMARK   50  A    between atoms: _100  and  _103
REMARK   51  A    between atoms: _103  and  _104
REMARK   52  A    between atoms: _114  and  _116
REMARK   53  A    between atoms: _116  and  _117
REMARK   54  A    between atoms: _116  and  _119
REMARK   55  A    between atoms: _119  and  _120
REMARK   56  A    between atoms: _122  and  _124
REMARK   57  A    between atoms: _124  and  _125
REMARK   58  A    between atoms: _124  and  _127
REMARK   59  A    between atoms: _127  and  _128
REMARK   60  A    between atoms: _131  and  _133
REMARK   61  A    between atoms: _133  and  _134
REMARK   62  A    between atoms: _133  and  _136
REMARK   63  A    between atoms: _136  and  _137
REMARK   64  A    between atoms: _140  and  _142
REMARK   65  A    between atoms: _142  and  _143
REMARK   66  A    between atoms: _142  and  _145
REMARK   67  A    between atoms: _145  and  _146
REMARK   68  A    between atoms: _149  and  _151
REMARK   69  A    between atoms: _151  and  _152
REMARK   70  A    between atoms: _151  and  _154
REMARK   71  A    between atoms: _154  and  _155
REMARK   72  A    between atoms: _158  and  _160
REMARK   73  A    between atoms: _160  and  _161
REMARK   74  A    between atoms: _160  and  _163
REMARK   75  A    between atoms: _163  and  _164
REMARK   76  A    between atoms: _167  and  _169
REMARK   77  A    between atoms: _169  and  _170
REMARK   78  A    between atoms: _169  and  _172
REMARK   79  A    between atoms: _172  and  _173
REMARK   80  A    between atoms: _178  and  _179
REMARK   81  A    between atoms: _181  and  _183
REMARK   82  A    between atoms: _183  and  _184
REMARK   83  A    between atoms: _183  and  _186
REMARK   84  A    between atoms: _189  and  _191
REMARK   85  A    between atoms: _191  and  _192
REMARK   86  A    between atoms: _191  and  _194
REMARK   87  A    between atoms: _194  and  _195
REMARK   88  A    between atoms: _198  and  _200
REMARK   89  A    between atoms: _200  and  _201
REMARK   90  A    between atoms: _200  and  _203
REMARK   91  A    between atoms: _203  and  _204
REMARK   92  A    between atoms: _204  and  _205
REMARK   93  A    between atoms: _210  and  _212
REMARK   94  A    between atoms: _212  and  _213
REMARK   95  A    between atoms: _212  and  _215
REMARK   96  A    between atoms: _215  and  _216
REMARK   97  A    between atoms: _219  and  _221
REMARK   98  A    between atoms: _221  and  _222
REMARK   99  A    between atoms: _221  and  _224
REMARK  100  A    between atoms: _224  and  _225
REMARK  101  A    between atoms: _228  and  _230
REMARK  102  A    between atoms: _230  and  _231
REMARK  103  A    between atoms: _230  and  _233
REMARK  104  A    between atoms: _233  and  _234
REMARK  105  A    between atoms: _239  and  _241
REMARK  106  A    between atoms: _241  and  _242
REMARK  107  A    between atoms: _241  and  _244
REMARK  108  A    between atoms: _244  and  _245
REMARK  109  A    between atoms: _248  and  _250
REMARK  110  A    between atoms: _250  and  _251
REMARK  111  A    between atoms: _250  and  _253
REMARK  112  A    between atoms: _253  and  _254
REMARK  113  A    between atoms: _259  and  _261
REMARK  114  A    between atoms: _261  and  _262
REMARK  115  A    between atoms: _261  and  _264
REMARK  116  A    between atoms: _264  and  _265
REMARK  117  A    between atoms: _268  and  _270
REMARK  118  A    between atoms: _270  and  _271
REMARK  119  A    between atoms: _270  and  _273
REMARK  120  A    between atoms: _273  and  _274
REMARK  121  A    between atoms: _280  and  _282
REMARK  122  A    between atoms: _282  and  _283
REMARK  123  A    between atoms: _282  and  _285
REMARK  124  A    between atoms: _285  and  _286
REMARK  125  A    between atoms: _296  and  _298
REMARK  126  A    between atoms: _298  and  _299
REMARK  127  A    between atoms: _298  and  _301
REMARK  128  A    between atoms: _301  and  _302
REMARK  129  A    between atoms: _306  and  ZN_316
REMARK  130  A    between atoms: _307  and  _309
REMARK  131  A    between atoms: _309  and  _310
REMARK  132  A    between atoms: _309  and  _312
REMARK  133  A    between atoms: _312  and  _313
REMARK                            x       y       z     vdW  Elec       q    Type
REMARK                         _______ _______ _______ _____ _____    ______ ____
ROOT
ATOM      1  CB  PHE A   1     -25.986  11.203  22.301  0.00  0.00    +0.051 C 
ENDROOT
BRANCH   1   2
ATOM      2  CG  PHE A   1     -24.950  10.231  21.769  0.00  0.00    -0.020 A 
ATOM      3  CD2 PHE A   1     -24.639   9.066  22.477  0.00  0.00    -0.004 A 
ATOM      4  CE2 PHE A   1     -23.751   8.129  21.959  0.00  0.00    -0.000 A 
ATOM      5  CZ  PHE A   1     -23.146   8.342  20.719  0.00  0.00    -0.000 A 
ATOM      6  CE1 PHE A   1     -23.440   9.504  20.007  0.00  0.00    -0.000 A 
ATOM      7  CD1 PHE A   1     -24.342  10.445  20.534  0.00  0.00    -0.004 A 
ENDBRANCH   1   2
BRANCH   1   8
ATOM      8  CA  PHE A   1     -27.358  11.073  21.635  0.00  0.00    +0.137 C 
BRANCH   8   9
ATOM      9  N   PHE A   1     -28.257  12.106  22.145  0.00  0.00    -0.239 NA
ATOM     10  H   PHE A   1     -28.086  12.518  23.085  0.00  0.00    +0.142 HD
ENDBRANCH   8   9
BRANCH   8  11
ATOM     11  C   PHE A   1     -27.941   9.674  21.876  0.00  0.00    +0.224 C 
ATOM     12  O   PHE A   1     -28.188   9.275  23.024  0.00  0.00    -0.287 OA
ENDBRANCH   8  11
ENDBRANCH   1   8
TORSDOF 4
REMARK  Name = ../refined-set-2016/2afw/2afw_pocket.pdb
REMARK  133 active torsions:
REMARK  status: ('A' for Active; 'I' for Inactive)
REMARK    1  A    between atoms: _1  and  _3
REMARK    2  A    between atoms: _3  and  _4
REMARK    3  A    between atoms: _3  and  _6
REMARK    4  A    between atoms: _6  and  _7
REMARK    5  A    between atoms: _12  and  _14
REMARK    6  A    between atoms: _14  and  _15
REMARK    7  A    between atoms: _14  and  _17
REMARK    8  A    between atoms: _17  and  _18
REMARK    9  A    between atoms: _21  and  _23
REMARK   10  A    between atoms: _23  and  _24
REMARK   11  A    between atoms: _23  and  _26
REMARK   12  A    between atoms: _26  and  _27
REMARK   13  A    between atoms: _27  and  _28
REMARK   14  A    between atoms: _28  and  _29
REMARK   15  A    between atoms: _29  and  _30
REMARK   16  A    between atoms: _34  and  _36
REMARK   17  A    between atoms: _36  and  _37
REMARK   18  A    between atoms: _36  and  _39
REMARK   19  A    between atoms: _39  and  _40
REMARK   20  A    between atoms: _46  and  _48
REMARK   21  A    between atoms: _48  and  _49
REMARK   22  A    between atoms: _48  and  _51
REMARK   23  A    between atoms: _51  and  _52
REMARK   24  A    between atoms: _55  and  _57
REMARK   25  A    between atoms: _57  and  _58
REMARK   26  A    between atoms: _57  and  _60
REMARK   27  A    between atoms: _60  and  _61
REMARK   28  A    between atoms: _61  and  _63
REMARK   29  A    between atoms: _63  and  ZN_316
REMARK   30  A    between atoms: _64  and  _66
REMARK   31  A    between atoms: _66  and  _67
REMARK   32  A    between atoms: _66  and  _69
REMARK   33  A    between atoms: _69  and  _70
REMARK   34  A    between atoms: _72  and  _74
REMARK   35  A    between atoms: _74  and  _75
REMARK   36  A    between atoms: _74  and  _77
REMARK   37  A    between atoms: _77  and  _78
REMARK   38  A    between atoms: _78  and  _79
REMARK   39  A    between atoms: _82  and  _84
REMARK   40  A    between atoms: _84  and  _85
REMARK   41  A    between atoms: _84  and  _87
REMARK   42  A    between atoms: _87  and  _88
REMARK   43  A    between atoms: _88  and  _89
REMARK   44  A    between atoms: _89  and  _91
REMARK   45  A    between atoms: _91  and  ZN_316
REMARK   46  A    between atoms: _92  and  _94
REMARK   47  A    between atoms: _94  and  _95
REMARK   48  A    between atoms: _98  and  _100
REMARK   49  A    between atoms: _100  and  _101
REMARK   50  A    between atoms: _100  and  _103
REMARK   51  A    between atoms: _103  and  _104
REMARK   52  A    between atoms: _114  and  _116
REMARK   53  A    between atoms: _116  and  _117
REMARK   54  A    between atoms: _116  and  _119
REMARK   55  A    between atoms: _119  and  _120
REMARK   56  A    between atoms: _122  and  _124
REMARK   57  A    between atoms: _124  and  _125
REMARK   58  A    between atoms: _124  and  _127
REMARK   59  A    between atoms: _127  and  _128
REMARK   60  A    between atoms: _131  and  _133
REMARK   61  A    between atoms: _133  and  _134
REMARK   62  A    between atoms: _133  and  _136
REMARK   63  A    between atoms: _136  and  _137
REMARK   64  A    between atoms: _140  and  _142
REMARK   65  A    between atoms: _142  and  _143
REMARK   66  A    between atoms: _142  and  _145
REMARK   67  A    between atoms: _145  and  _146
REMARK   68  A    between atoms: _149  and  _151
REMARK   69  A    between atoms: _151  and  _152
REMARK   70  A    between atoms: _151  and  _154
REMARK   71  A    between atoms: _154  and  _155
REMARK   72  A    between atoms: _158  and  _160
REMARK   73  A    between atoms: _160  and  _161
REMARK   74  A    between atoms: _160  and  _163
REMARK   75  A    between atoms: _163  and  _164
REMARK   76  A    between atoms: _167  and  _169
REMARK   77  A    between atoms: _169  and  _170
REMARK   78  A    between atoms: _169  and  _172
REMARK   79  A    between atoms: _172  and  _173
REMARK   80  A    between atoms: _178  and  _179
REMARK   81  A    between atoms: _181  and  _183
REMARK   82  A    between atoms: _183  and  _184
REMARK   83  A    between atoms: _183  and  _186
REMARK   84  A    between atoms: _189  and  _191
REMARK   85  A    between atoms: _191  and  _192
REMARK   86  A    between atoms: _191  and  _194
REMARK   87  A    between atoms: _194  and  _195
REMARK   88  A    between atoms: _198  and  _200
REMARK   89  A    between atoms: _200  and  _201
REMARK   90  A    between atoms: _200  and  _203
REMARK   91  A    between atoms: _203  and  _204
REMARK   92  A    between atoms: _204  and  _205
REMARK   93  A    between atoms: _210  and  _212
REMARK   94  A    between atoms: _212  and  _213
REMARK   95  A    between atoms: _212  and  _215
REMARK   96  A    between atoms: _215  and  _216
REMARK   97  A    between atoms: _219  and  _221
REMARK   98  A    between atoms: _221  and  _222
REMARK   99  A    between atoms: _221  and  _224
REMARK  100  A    between atoms: _224  and  _225
REMARK  101  A    between atoms: _228  and  _230
REMARK  102  A    between atoms: _230  and  _231
REMARK  103  A    between atoms: _230  and  _233
REMARK  104  A    between atoms: _233  and  _234
REMARK  105  A    between atoms: _239  and  _241
REMARK  106  A    between atoms: _241  and  _242
REMARK  107  A    between atoms: _241  and  _244
REMARK  108  A    between atoms: _244  and  _245
REMARK  109  A    between atoms: _248  and  _250
REMARK  110  A    between atoms: _250  and  _251
REMARK  111  A    between atoms: _250  and  _253
REMARK  112  A    between atoms: _253  and  _254
REMARK  113  A    between atoms: _259  and  _261
REMARK  114  A    between atoms: _261  and  _262
REMARK  115  A    between atoms: _261  and  _264
REMARK  116  A    between atoms: _264  and  _265
REMARK  117  A    between atoms: _268  and  _270
REMARK  118  A    between atoms: _270  and  _271
REMARK  119  A    between atoms: _270  and  _273
REMARK  120  A    between atoms: _273  and  _274
REMARK  121  A    between atoms: _280  and  _282
REMARK  122  A    between atoms: _282  and  _283
REMARK  123  A    between atoms: _282  and  _285
REMARK  124  A    between atoms: _285  and  _286
REMARK  125  A    between atoms: _296  and  _298
REMARK  126  A    between atoms: _298  and  _299
REMARK  127  A    between atoms: _298  and  _301
REMARK  128  A    between atoms: _301  and  _302
REMARK  129  A    between atoms: _306  and  ZN_316
REMARK  130  A    between atoms: _307  and  _309
REMARK  131  A    between atoms: _309  and  _310
REMARK  132  A    between atoms: _309  and  _312
REMARK  133  A    between atoms: _312  and  _313
REMARK                            x       y       z     vdW  Elec       q    Type
REMARK                         _______ _______ _______ _____ _____    ______ ____
ROOT
ATOM      1 ZN   UNK A   2     -18.859   5.216  22.154  0.00  0.00    +0.000 Zn
ENDROOT
BRANCH   1   2
ATOM      2  N   UNK A   2     -18.171   7.133  21.902  0.00  0.00    +0.000 N 
ATOM      3  C   UNK A   2     -17.185   7.799  22.477  0.00  0.00    +0.000 A 
ATOM      4  N   UNK A   2     -17.118   9.003  21.923  0.00  0.00    +0.000 NA
ATOM      5  C   UNK A   2     -18.096   9.106  20.959  0.00  0.00    +0.000 A 
ATOM      6  C   UNK A   2     -18.758   7.923  20.954  0.00  0.00    +0.000 A 
BRANCH   5   7
ATOM      7  C   UNK A   2     -18.317  10.354  20.138  0.00  0.00    +0.000 C 
BRANCH   7   8
ATOM      8  C   UNK A   2     -19.609  10.277  19.321  0.00  0.00    +0.000 C 
BRANCH   8   9
ATOM      9  N   UNK A   2     -19.449   9.336  18.199  0.00  0.00    +0.000 N 
ATOM     10  H   UNK A   2     -19.951   8.426  18.246  0.00  0.00    +0.000 HD
ATOM     11  C   TRP A   1     -18.704   9.583  17.138  0.00  0.00    +0.000 C 
ATOM     12  O   TRP A   1     -18.115  10.664  16.963  0.00  0.00    +0.000 OA
BRANCH  11  13
ATOM     13  CA  TRP A   1     -18.660   8.453  16.103  0.00  0.00    +0.000 C 
BRANCH  13  14
ATOM     14  N   TRP A   1     -19.039   8.827  14.743  0.00  0.00    +0.000 NA
ATOM     15  H   TRP A   1     -18.447   8.519  13.946  0.00  0.00    +0.000 HD
ENDBRANCH  13  14
BRANCH  13  16
ATOM     16  CB  TRP A   1     -17.257   7.820  16.053  0.00  0.00    +0.000 C 
BRANCH  16  17
ATOM     17  CG  TRP A   1     -16.741   7.289  17.400  0.00  0.00    +0.000 A 
ATOM     18  CD2 TRP A   1     -15.801   7.935  18.239  0.00  0.00    +0.000 A 
ATOM     19  CE2 TRP A   1     -15.514   7.066  19.322  0.00  0.00    +0.000 A 
ATOM     20  CZ2 TRP A   1     -14.616   7.403  20.334  0.00  0.00    +0.000 A 
ATOM     21  CH2 TRP A   1     -14.008   8.633  20.256  0.00  0.00    +0.000 A 
ATOM     22  CZ3 TRP A   1     -14.279   9.524  19.189  0.00  0.00    +0.000 A 
ATOM     23  NE1 TRP A   1     -16.262   5.923  19.156  0.00  0.00    +0.000 N 
ATOM     24  HE1 TRP A   1     -16.263   5.099  19.791  0.00  0.00    +0.000 HD
ATOM     25  CE3 TRP A   1     -15.159   9.192  18.185  0.00  0.00    +0.000 A 
ATOM     26  CD1 TRP A   1     -17.012   6.055  18.002  0.00  0.00    +0.000 A 
ENDBRANCH  16  17
ENDBRANCH  13  16
ENDBRANCH  11  13
ENDBRANCH   8   9
BRANCH   8  27
ATOM     27  C   UNK A   2     -20.135  11.657  18.932  0.00  0.00    +0.000 C 
ATOM     28  O   UNK A   2     -19.792  12.683  19.528  0.00  0.00    +0.000 OA
ENDBRANCH   8  27
ENDBRANCH   7   8
ENDBRANCH   5   7
ENDBRANCH   1   2
BRANCH   1  29
ATOM     29  O   UNK A   2     -20.150   5.137  20.604  0.00  0.00    +0.000 OA
BRANCH  29  30
ATOM     30  C   UNK A   2     -20.752   4.032  20.518  0.00  0.00    +0.000 C 
ATOM     31  O   UNK A   2     -20.546   3.122  21.324  0.00  0.00    +0.000 OA
BRANCH  30  32
ATOM     32  C   UNK A   2     -21.716   3.863  19.358  0.00  0.00    +0.000 C 
BRANCH  32  33
ATOM     33  C   UNK A   2     -22.624   2.591  19.420  0.00  0.00    +0.000 C 
BRANCH  33  35
ATOM     34  C   TRP A   1     -23.202   1.812  17.173  0.00  0.00    +0.000 C 
ATOM     35  N   UNK A   2     -23.380   2.650  18.184  0.00  0.00    +0.000 N 
ATOM     36  H   UNK A   2     -24.102   3.392  18.085  0.00  0.00    +0.000 HD
ATOM     37  O   TRP A   1     -22.545   0.760  17.262  0.00  0.00    +0.000 OA
BRANCH  34  38
ATOM     38  CA  TRP A   1     -23.914   2.183  15.851  0.00  0.00    +0.000 C 
BRANCH  38  39
ATOM     39  CB  TRP A   1     -22.763   2.695  14.919  0.00  0.00    +0.000 C 
ATOM     40  CG2 TRP A   1     -23.311   3.103  13.542  0.00  0.00    +0.000 C 
BRANCH  39  41
ATOM     41  OG1 TRP A   1     -22.096   3.809  15.562  0.00  0.00    +0.000 OA
ATOM     42  HG1 TRP A   1     -22.748   4.537  15.719  0.00  0.00    +0.000 HD
ENDBRANCH  39  41
ENDBRANCH  38  39
BRANCH  38  43
ATOM     43  N   TRP A   1     -24.899   3.222  16.138  0.00  0.00    +0.000 NA
ATOM     44  H   TRP A   1     -24.657   4.226  16.018  0.00  0.00    +0.000 HD
ENDBRANCH  38  43
ENDBRANCH  34  38
ENDBRANCH  33  35
BRANCH  33  45
ATOM     45  C   UNK A   2     -23.503   2.566  20.690  0.00  0.00    +0.000 C 
ATOM     46  O   UNK A   2     -23.603   3.566  21.400  0.00  0.00    +0.000 OA
ATOM     47  N   ALA A   3     -24.081   1.398  21.047  0.00  0.00    +0.000 N 
ATOM     48  H   ALA A   3     -24.586   1.354  21.955  0.00  0.00    +0.000 HD
BRANCH  47  49
ATOM     49  CA  ALA A   3     -24.032   0.193  20.220  0.00  0.00    +0.000 C 
BRANCH  49  50
ATOM     50  C   ALA A   3     -25.439  -0.412  20.116  0.00  0.00    +0.000 C 
ATOM     51  O   ALA A   3     -25.637  -1.627  20.286  0.00  0.00    +0.000 OA
ENDBRANCH  49  50
BRANCH  49  52
ATOM     52  CB  ALA A   3     -23.049  -0.830  20.817  0.00  0.00    +0.000 C 
BRANCH  52  53
ATOM     53  O   ALA A   3     -21.696  -0.506  20.426  0.00  0.00    +0.000 OA
ATOM     54  H   ALA A   3     -21.073  -1.170  20.815  0.00  0.00    +0.000 HD
ENDBRANCH  52  53
ENDBRANCH  49  52
ENDBRANCH  47  49
ENDBRANCH  33  45
ENDBRANCH  32  33
ENDBRANCH  30  32
ENDBRANCH  29  30
ENDBRANCH   1  29
BRANCH   1  55
ATOM     55  O   UNK A   2     -20.030   4.904  23.720  0.00  0.00    +0.000 OA
BRANCH  55  56
ATOM     56  C   UNK A   2     -19.487   5.188  24.814  0.00  0.00    +0.000 C 
ATOM     57  O   UNK A   2     -18.305   5.637  24.912  0.00  0.00    +0.000 OA
BRANCH  56  58
ATOM     58  C   UNK A   2     -20.325   4.933  26.050  0.00  0.00    +0.000 C 
BRANCH  58  59
ATOM     59  C   UNK A   2     -19.762   5.495  27.376  0.00  0.00    +0.000 C 
BRANCH  59  60
ATOM     60  C   UNK A   2     -18.653   4.655  28.038  0.00  0.00    +0.000 C 
BRANCH  60  61
ATOM     61  N   UNK A   2     -19.135   3.301  28.315  0.00  0.00    +0.000 N 
ATOM     62  C   TRP A   1     -18.245   2.320  28.491  0.00  0.00    +0.000 C 
ATOM     63  O   TRP A   1     -17.025   2.499  28.543  0.00  0.00    +0.000 OA
ATOM     64  H   UNK A   2     -20.155   3.105  28.374  0.00  0.00    +0.000 HD
BRANCH  62  65
ATOM     65  CA  TRP A   1     -18.840   0.921  28.651  0.00  0.00    +0.000 C 
BRANCH  65  66
ATOM     66  N   TRP A   1     -20.074   1.030  29.419  0.00  0.00    +0.000 NA
ATOM     67  H   TRP A   1     -20.999   0.859  28.976  0.00  0.00    +0.000 HD
ENDBRANCH  65  66
BRANCH  65  68
ATOM     68  CB  TRP A   1     -19.118   0.364  27.266  0.00  0.00    +0.000 C 
BRANCH  68  69
ATOM     69  CG  TRP A   1     -17.903   0.222  26.375  0.00  0.00    +0.000 C 
BRANCH  69  70
ATOM     70  CD  TRP A   1     -17.498   1.507  25.618  0.00  0.00    +0.000 C 
ATOM     71  OE2 TRP A   1     -18.371   2.339  25.385  0.00  0.00    +0.000 OA
ATOM     72  OE1 TRP A   1     -16.294   1.622  25.245  0.00  0.00    +0.000 OA
ENDBRANCH  69  70
ENDBRANCH  68  69
ENDBRANCH  65  68
ENDBRANCH  62  65
ENDBRANCH  60  61
BRANCH  60  73
ATOM     73  C   UNK A   2     -18.183   5.443  29.254  0.00  0.00    +0.000 C 
ATOM     74  O   UNK A   2     -18.640   5.224  30.366  0.00  0.00    +0.000 OA
ATOM     75  N   ALA A   3     -17.255   6.368  29.009  0.00  0.00    +0.000 N 
ATOM     76  H   ALA A   3     -16.836   6.444  28.060  0.00  0.00    +0.000 HD
BRANCH  75  77
ATOM     77  CA  ALA A   3     -16.829   7.267  30.062  0.00  0.00    +0.000 C 
ATOM     78  CB  ALA A   3     -15.595   8.018  29.611  0.00  0.00    +0.000 C 
BRANCH  77  79
ATOM     79  C   ALA A   3     -17.971   8.272  30.292  0.00  0.00    +0.000 C 
ATOM     80  O   ALA A   3     -18.701   8.632  29.352  0.00  0.00    +0.000 OA
ENDBRANCH  77  79
ENDBRANCH  75  77
ENDBRANCH  60  73
ENDBRANCH  59  60
ENDBRANCH  58  59
ENDBRANCH  56  58
ENDBRANCH  55  56
ENDBRANCH   1  55
TORSDOF 37
REMARK  Name = ../refined-set-2016/2afw/2afw_pocket.pdb
REMARK  133 active torsions:
REMARK  status: ('A' for Active; 'I' for Inactive)
REMARK    1  A    between atoms: _1  and  _3
REMARK    2  A    between atoms: _3  and  _4
REMARK    3  A    between atoms: _3  and  _6
REMARK    4  A    between atoms: _6  and  _7
REMARK    5  A    between atoms: _12  and  _14
REMARK    6  A    between atoms: _14  and  _15
REMARK    7  A    between atoms: _14  and  _17
REMARK    8  A    between atoms: _17  and  _18
REMARK    9  A    between atoms: _21  and  _23
REMARK   10  A    between atoms: _23  and  _24
REMARK   11  A    between atoms: _23  and  _26
REMARK   12  A    between atoms: _26  and  _27
REMARK   13  A    between atoms: _27  and  _28
REMARK   14  A    between atoms: _28  and  _29
REMARK   15  A    between atoms: _29  and  _30
REMARK   16  A    between atoms: _34  and  _36
REMARK   17  A    between atoms: _36  and  _37
REMARK   18  A    between atoms: _36  and  _39
REMARK   19  A    between atoms: _39  and  _40
REMARK   20  A    between atoms: _46  and  _48
REMARK   21  A    between atoms: _48  and  _49
REMARK   22  A    between atoms: _48  and  _51
REMARK   23  A    between atoms: _51  and  _52
REMARK   24  A    between atoms: _55  and  _57
REMARK   25  A    between atoms: _57  and  _58
REMARK   26  A    between atoms: _57  and  _60
REMARK   27  A    between atoms: _60  and  _61
REMARK   28  A    between atoms: _61  and  _63
REMARK   29  A    between atoms: _63  and  ZN_316
REMARK   30  A    between atoms: _64  and  _66
REMARK   31  A    between atoms: _66  and  _67
REMARK   32  A    between atoms: _66  and  _69
REMARK   33  A    between atoms: _69  and  _70
REMARK   34  A    between atoms: _72  and  _74
REMARK   35  A    between atoms: _74  and  _75
REMARK   36  A    between atoms: _74  and  _77
REMARK   37  A    between atoms: _77  and  _78
REMARK   38  A    between atoms: _78  and  _79
REMARK   39  A    between atoms: _82  and  _84
REMARK   40  A    between atoms: _84  and  _85
REMARK   41  A    between atoms: _84  and  _87
REMARK   42  A    between atoms: _87  and  _88
REMARK   43  A    between atoms: _88  and  _89
REMARK   44  A    between atoms: _89  and  _91
REMARK   45  A    between atoms: _91  and  ZN_316
REMARK   46  A    between atoms: _92  and  _94
REMARK   47  A    between atoms: _94  and  _95
REMARK   48  A    between atoms: _98  and  _100
REMARK   49  A    between atoms: _100  and  _101
REMARK   50  A    between atoms: _100  and  _103
REMARK   51  A    between atoms: _103  and  _104
REMARK   52  A    between atoms: _114  and  _116
REMARK   53  A    between atoms: _116  and  _117
REMARK   54  A    between atoms: _116  and  _119
REMARK   55  A    between atoms: _119  and  _120
REMARK   56  A    between atoms: _122  and  _124
REMARK   57  A    between atoms: _124  and  _125
REMARK   58  A    between atoms: _124  and  _127
REMARK   59  A    between atoms: _127  and  _128
REMARK   60  A    between atoms: _131  and  _133
REMARK   61  A    between atoms: _133  and  _134
REMARK   62  A    between atoms: _133  and  _136
REMARK   63  A    between atoms: _136  and  _137
REMARK   64  A    between atoms: _140  and  _142
REMARK   65  A    between atoms: _142  and  _143
REMARK   66  A    between atoms: _142  and  _145
REMARK   67  A    between atoms: _145  and  _146
REMARK   68  A    between atoms: _149  and  _151
REMARK   69  A    between atoms: _151  and  _152
REMARK   70  A    between atoms: _151  and  _154
REMARK   71  A    between atoms: _154  and  _155
REMARK   72  A    between atoms: _158  and  _160
REMARK   73  A    between atoms: _160  and  _161
REMARK   74  A    between atoms: _160  and  _163
REMARK   75  A    between atoms: _163  and  _164
REMARK   76  A    between atoms: _167  and  _169
REMARK   77  A    between atoms: _169  and  _170
REMARK   78  A    between atoms: _169  and  _172
REMARK   79  A    between atoms: _172  and  _173
REMARK   80  A    between atoms: _178  and  _179
REMARK   81  A    between atoms: _181  and  _183
REMARK   82  A    between atoms: _183  and  _184
REMARK   83  A    between atoms: _183  and  _186
REMARK   84  A    between atoms: _189  and  _191
REMARK   85  A    between atoms: _191  and  _192
REMARK   86  A    between atoms: _191  and  _194
REMARK   87  A    between atoms: _194  and  _195
REMARK   88  A    between atoms: _198  and  _200
REMARK   89  A    between atoms: _200  and  _201
REMARK   90  A    between atoms: _200  and  _203
REMARK   91  A    between atoms: _203  and  _204
REMARK   92  A    between atoms: _204  and  _205
REMARK   93  A    between atoms: _210  and  _212
REMARK   94  A    between atoms: _212  and  _213
REMARK   95  A    between atoms: _212  and  _215
REMARK   96  A    between atoms: _215  and  _216
REMARK   97  A    between atoms: _219  and  _221
REMARK   98  A    between atoms: _221  and  _222
REMARK   99  A    between atoms: _221  and  _224
REMARK  100  A    between atoms: _224  and  _225
REMARK  101  A    between atoms: _228  and  _230
REMARK  102  A    between atoms: _230  and  _231
REMARK  103  A    between atoms: _230  and  _233
REMARK  104  A    between atoms: _233  and  _234
REMARK  105  A    between atoms: _239  and  _241
REMARK  106  A    between atoms: _241  and  _242
REMARK  107  A    between atoms: _241  and  _244
REMARK  108  A    between atoms: _244  and  _245
REMARK  109  A    between atoms: _248  and  _250
REMARK  110  A    between atoms: _250  and  _251
REMARK  111  A    between atoms: _250  and  _253
REMARK  112  A    between atoms: _253  and  _254
REMARK  113  A    between atoms: _259  and  _261
REMARK  114  A    between atoms: _261  and  _262
REMARK  115  A    between atoms: _261  and  _264
REMARK  116  A    between atoms: _264  and  _265
REMARK  117  A    between atoms: _268  and  _270
REMARK  118  A    between atoms: _270  and  _271
REMARK  119  A    between atoms: _270  and  _273
REMARK  120  A    between atoms: _273  and  _274
REMARK  121  A    between atoms: _280  and  _282
REMARK  122  A    between atoms: _282  and  _283
REMARK  123  A    between atoms: _282  and  _285
REMARK  124  A    between atoms: _285  and  _286
REMARK  125  A    between atoms: _296  and  _298
REMARK  126  A    between atoms: _298  and  _299
REMARK  127  A    between atoms: _298  and  _301
REMARK  128  A    between atoms: _301  and  _302
REMARK  129  A    between atoms: _306  and  ZN_316
REMARK  130  A    between atoms: _307  and  _309
REMARK  131  A    between atoms: _309  and  _310
REMARK  132  A    between atoms: _309  and  _312
REMARK  133  A    between atoms: _312  and  _313
REMARK                            x       y       z     vdW  Elec       q    Type
REMARK                         _______ _______ _______ _____ _____    ______ ____
ROOT
ATOM      1  CG  TRP A   1     -10.714   6.364  27.630  0.00  0.00    -0.002 A 
ATOM      2  CD1 TRP A   1     -11.124   5.116  28.021  0.00  0.00    +0.068 A 
ATOM      3  NE1 TRP A   1     -10.056   4.394  28.514  0.00  0.00    -0.352 N 
ATOM      4  HE1 TRP A   1     -10.106   3.422  28.879  0.00  0.00    +0.166 HD
ATOM      5  CE2 TRP A   1      -8.920   5.156  28.448  0.00  0.00    +0.056 A 
ATOM      6  CZ2 TRP A   1      -7.596   4.850  28.827  0.00  0.00    +0.017 A 
ATOM      7  CH2 TRP A   1      -6.640   5.823  28.641  0.00  0.00    +0.001 A 
ATOM      8  CZ3 TRP A   1      -6.967   7.085  28.090  0.00  0.00    +0.000 A 
ATOM      9  CE3 TRP A   1      -8.281   7.392  27.712  0.00  0.00    +0.001 A 
ATOM     10  CD2 TRP A   1      -9.284   6.412  27.892  0.00  0.00    +0.013 A 
ENDROOT
BRANCH   1  11
ATOM     11  CB  TRP A   1     -11.625   7.522  27.148  0.00  0.00    +0.053 C 
BRANCH  11  12
ATOM     12  CA  TRP A   1     -12.157   8.373  28.318  0.00  0.00    +0.137 C 
BRANCH  12  13
ATOM     13  N   TRP A   1     -12.832   9.590  27.848  0.00  0.00    -0.239 NA
ATOM     14  H   TRP A   1     -13.083   9.692  26.844  0.00  0.00    +0.142 HD
ENDBRANCH  12  13
BRANCH  12  15
ATOM     15  C   TRP A   1     -10.972   8.586  29.259  0.00  0.00    +0.224 C 
ATOM     16  O   TRP A   1     -10.166   9.508  29.100  0.00  0.00    -0.287 OA
ENDBRANCH  12  15
ENDBRANCH  11  12
ENDBRANCH   1  11
TORSDOF 4
REMARK  Name = ../refined-set-2016/2afw/2afw_pocket.pdb
REMARK  133 active torsions:
REMARK  status: ('A' for Active; 'I' for Inactive)
REMARK    1  A    between atoms: _1  and  _3
REMARK    2  A    between atoms: _3  and  _4
REMARK    3  A    between atoms: _3  and  _6
REMARK    4  A    between atoms: _6  and  _7
REMARK    5  A    between atoms: _12  and  _14
REMARK    6  A    between atoms: _14  and  _15
REMARK    7  A    between atoms: _14  and  _17
REMARK    8  A    between atoms: _17  and  _18
REMARK    9  A    between atoms: _21  and  _23
REMARK   10  A    between atoms: _23  and  _24
REMARK   11  A    between atoms: _23  and  _26
REMARK   12  A    between atoms: _26  and  _27
REMARK   13  A    between atoms: _27  and  _28
REMARK   14  A    between atoms: _28  and  _29
REMARK   15  A    between atoms: _29  and  _30
REMARK   16  A    between atoms: _34  and  _36
REMARK   17  A    between atoms: _36  and  _37
REMARK   18  A    between atoms: _36  and  _39
REMARK   19  A    between atoms: _39  and  _40
REMARK   20  A    between atoms: _46  and  _48
REMARK   21  A    between atoms: _48  and  _49
REMARK   22  A    between atoms: _48  and  _51
REMARK   23  A    between atoms: _51  and  _52
REMARK   24  A    between atoms: _55  and  _57
REMARK   25  A    between atoms: _57  and  _58
REMARK   26  A    between atoms: _57  and  _60
REMARK   27  A    between atoms: _60  and  _61
REMARK   28  A    between atoms: _61  and  _63
REMARK   29  A    between atoms: _63  and  ZN_316
REMARK   30  A    between atoms: _64  and  _66
REMARK   31  A    between atoms: _66  and  _67
REMARK   32  A    between atoms: _66  and  _69
REMARK   33  A    between atoms: _69  and  _70
REMARK   34  A    between atoms: _72  and  _74
REMARK   35  A    between atoms: _74  and  _75
REMARK   36  A    between atoms: _74  and  _77
REMARK   37  A    between atoms: _77  and  _78
REMARK   38  A    between atoms: _78  and  _79
REMARK   39  A    between atoms: _82  and  _84
REMARK   40  A    between atoms: _84  and  _85
REMARK   41  A    between atoms: _84  and  _87
REMARK   42  A    between atoms: _87  and  _88
REMARK   43  A    between atoms: _88  and  _89
REMARK   44  A    between atoms: _89  and  _91
REMARK   45  A    between atoms: _91  and  ZN_316
REMARK   46  A    between atoms: _92  and  _94
REMARK   47  A    between atoms: _94  and  _95
REMARK   48  A    between atoms: _98  and  _100
REMARK   49  A    between atoms: _100  and  _101
REMARK   50  A    between atoms: _100  and  _103
REMARK   51  A    between atoms: _103  and  _104
REMARK   52  A    between atoms: _114  and  _116
REMARK   53  A    between atoms: _116  and  _117
REMARK   54  A    between atoms: _116  and  _119
REMARK   55  A    between atoms: _119  and  _120
REMARK   56  A    between atoms: _122  and  _124
REMARK   57  A    between atoms: _124  and  _125
REMARK   58  A    between atoms: _124  and  _127
REMARK   59  A    between atoms: _127  and  _128
REMARK   60  A    between atoms: _131  and  _133
REMARK   61  A    between atoms: _133  and  _134
REMARK   62  A    between atoms: _133  and  _136
REMARK   63  A    between atoms: _136  and  _137
REMARK   64  A    between atoms: _140  and  _142
REMARK   65  A    between atoms: _142  and  _143
REMARK   66  A    between atoms: _142  and  _145
REMARK   67  A    between atoms: _145  and  _146
REMARK   68  A    between atoms: _149  and  _151
REMARK   69  A    between atoms: _151  and  _152
REMARK   70  A    between atoms: _151  and  _154
REMARK   71  A    between atoms: _154  and  _155
REMARK   72  A    between atoms: _158  and  _160
REMARK   73  A    between atoms: _160  and  _161
REMARK   74  A    between atoms: _160  and  _163
REMARK   75  A    between atoms: _163  and  _164
REMARK   76  A    between atoms: _167  and  _169
REMARK   77  A    between atoms: _169  and  _170
REMARK   78  A    between atoms: _169  and  _172
REMARK   79  A    between atoms: _172  and  _173
REMARK   80  A    between atoms: _178  and  _179
REMARK   81  A    between atoms: _181  and  _183
REMARK   82  A    between atoms: _183  and  _184
REMARK   83  A    between atoms: _183  and  _186
REMARK   84  A    between atoms: _189  and  _191
REMARK   85  A    between atoms: _191  and  _192
REMARK   86  A    between atoms: _191  and  _194
REMARK   87  A    between atoms: _194  and  _195
REMARK   88  A    between atoms: _198  and  _200
REMARK   89  A    between atoms: _200  and  _201
REMARK   90  A    between atoms: _200  and  _203
REMARK   91  A    between atoms: _203  and  _204
REMARK   92  A    between atoms: _204  and  _205
REMARK   93  A    between atoms: _210  and  _212
REMARK   94  A    between atoms: _212  and  _213
REMARK   95  A    between atoms: _212  and  _215
REMARK   96  A    between atoms: _215  and  _216
REMARK   97  A    between atoms: _219  and  _221
REMARK   98  A    between atoms: _221  and  _222
REMARK   99  A    between atoms: _221  and  _224
REMARK  100  A    between atoms: _224  and  _225
REMARK  101  A    between atoms: _228  and  _230
REMARK  102  A    between atoms: _230  and  _231
REMARK  103  A    between atoms: _230  and  _233
REMARK  104  A    between atoms: _233  and  _234
REMARK  105  A    between atoms: _239  and  _241
REMARK  106  A    between atoms: _241  and  _242
REMARK  107  A    between atoms: _241  and  _244
REMARK  108  A    between atoms: _244  and  _245
REMARK  109  A    between atoms: _248  and  _250
REMARK  110  A    between atoms: _250  and  _251
REMARK  111  A    between atoms: _250  and  _253
REMARK  112  A    between atoms: _253  and  _254
REMARK  113  A    between atoms: _259  and  _261
REMARK  114  A    between atoms: _261  and  _262
REMARK  115  A    between atoms: _261  and  _264
REMARK  116  A    between atoms: _264  and  _265
REMARK  117  A    between atoms: _268  and  _270
REMARK  118  A    between atoms: _270  and  _271
REMARK  119  A    between atoms: _270  and  _273
REMARK  120  A    between atoms: _273  and  _274
REMARK  121  A    between atoms: _280  and  _282
REMARK  122  A    between atoms: _282  and  _283
REMARK  123  A    between atoms: _282  and  _285
REMARK  124  A    between atoms: _285  and  _286
REMARK  125  A    between atoms: _296  and  _298
REMARK  126  A    between atoms: _298  and  _299
REMARK  127  A    between atoms: _298  and  _301
REMARK  128  A    between atoms: _301  and  _302
REMARK  129  A    between atoms: _306  and  ZN_316
REMARK  130  A    between atoms: _307  and  _309
REMARK  131  A    between atoms: _309  and  _310
REMARK  132  A    between atoms: _309  and  _312
REMARK  133  A    between atoms: _312  and  _313
REMARK                            x       y       z     vdW  Elec       q    Type
REMARK                         _______ _______ _______ _____ _____    ______ ____
ROOT
ATOM      1  C   SER A   1     -14.896   2.262  31.722  0.00  0.00    +0.241 C 
ATOM      2  O   SER A   1     -14.425   1.866  32.782  0.00  0.00    -0.274 OA
ATOM      3  N   LEU A   2     -15.534   1.481  30.870  0.00  0.00    -0.298 N 
ATOM      4  H   LEU A   2     -15.993   1.908  30.041  0.00  0.00    +0.150 HD
ENDROOT
BRANCH   1   5
ATOM      5  CA  SER A   1     -14.800   3.730  31.333  0.00  0.00    +0.174 C 
BRANCH   5   6
ATOM      6  N   SER A   1     -14.471   4.472  32.551  0.00  0.00    -0.236 NA
ATOM      7  H   SER A   1     -14.506   3.976  33.464  0.00  0.00    +0.142 HD
ENDBRANCH   5   6
BRANCH   5   8
ATOM      8  CB  SER A   1     -13.718   3.914  30.241  0.00  0.00    +0.163 C 
BRANCH   8   9
ATOM      9  OG  SER A   1     -12.495   3.392  30.665  0.00  0.00    -0.380 OA
ATOM     10  H   SER A   1     -12.598   2.426  30.855  0.00  0.00    +0.211 HD
ENDBRANCH   8   9
ENDBRANCH   5   8
ENDBRANCH   1   5
BRANCH   3  11
ATOM     11  CA  LEU A   2     -15.615   0.020  31.059  0.00  0.00    +0.137 C 
BRANCH  11  12
ATOM     12  C   LEU A   2     -16.086  -0.409  32.451  0.00  0.00    +0.227 C 
ATOM     13  O   LEU A   2     -15.595  -1.417  33.002  0.00  0.00    -0.286 OA
ENDBRANCH  11  12
BRANCH  11  14
ATOM     14  CB  LEU A   2     -14.227  -0.579  30.778  0.00  0.00    +0.028 C 
BRANCH  14  15
ATOM     15  CG  LEU A   2     -13.465  -0.127  29.505  0.00  0.00    +0.002 C 
ATOM     16  CD2 LEU A   2     -12.222  -0.971  29.313  0.00  0.00    +0.000 C 
ATOM     17  CD1 LEU A   2     -14.386  -0.276  28.306  0.00  0.00    +0.000 C 
ENDBRANCH  14  15
ENDBRANCH  11  14
ENDBRANCH   3  11
TORSDOF 8
REMARK  Name = ../refined-set-2016/2afw/2afw_pocket.pdb
REMARK  133 active torsions:
REMARK  status: ('A' for Active; 'I' for Inactive)
REMARK    1  A    between atoms: _1  and  _3
REMARK    2  A    between atoms: _3  and  _4
REMARK    3  A    between atoms: _3  and  _6
REMARK    4  A    between atoms: _6  and  _7
REMARK    5  A    between atoms: _12  and  _14
REMARK    6  A    between atoms: _14  and  _15
REMARK    7  A    between atoms: _14  and  _17
REMARK    8  A    between atoms: _17  and  _18
REMARK    9  A    between atoms: _21  and  _23
REMARK   10  A    between atoms: _23  and  _24
REMARK   11  A    between atoms: _23  and  _26
REMARK   12  A    between atoms: _26  and  _27
REMARK   13  A    between atoms: _27  and  _28
REMARK   14  A    between atoms: _28  and  _29
REMARK   15  A    between atoms: _29  and  _30
REMARK   16  A    between atoms: _34  and  _36
REMARK   17  A    between atoms: _36  and  _37
REMARK   18  A    between atoms: _36  and  _39
REMARK   19  A    between atoms: _39  and  _40
REMARK   20  A    between atoms: _46  and  _48
REMARK   21  A    between atoms: _48  and  _49
REMARK   22  A    between atoms: _48  and  _51
REMARK   23  A    between atoms: _51  and  _52
REMARK   24  A    between atoms: _55  and  _57
REMARK   25  A    between atoms: _57  and  _58
REMARK   26  A    between atoms: _57  and  _60
REMARK   27  A    between atoms: _60  and  _61
REMARK   28  A    between atoms: _61  and  _63
REMARK   29  A    between atoms: _63  and  ZN_316
REMARK   30  A    between atoms: _64  and  _66
REMARK   31  A    between atoms: _66  and  _67
REMARK   32  A    between atoms: _66  and  _69
REMARK   33  A    between atoms: _69  and  _70
REMARK   34  A    between atoms: _72  and  _74
REMARK   35  A    between atoms: _74  and  _75
REMARK   36  A    between atoms: _74  and  _77
REMARK   37  A    between atoms: _77  and  _78
REMARK   38  A    between atoms: _78  and  _79
REMARK   39  A    between atoms: _82  and  _84
REMARK   40  A    between atoms: _84  and  _85
REMARK   41  A    between atoms: _84  and  _87
REMARK   42  A    between atoms: _87  and  _88
REMARK   43  A    between atoms: _88  and  _89
REMARK   44  A    between atoms: _89  and  _91
REMARK   45  A    between atoms: _91  and  ZN_316
REMARK   46  A    between atoms: _92  and  _94
REMARK   47  A    between atoms: _94  and  _95
REMARK   48  A    between atoms: _98  and  _100
REMARK   49  A    between atoms: _100  and  _101
REMARK   50  A    between atoms: _100  and  _103
REMARK   51  A    between atoms: _103  and  _104
REMARK   52  A    between atoms: _114  and  _116
REMARK   53  A    between atoms: _116  and  _117
REMARK   54  A    between atoms: _116  and  _119
REMARK   55  A    between atoms: _119  and  _120
REMARK   56  A    between atoms: _122  and  _124
REMARK   57  A    between atoms: _124  and  _125
REMARK   58  A    between atoms: _124  and  _127
REMARK   59  A    between atoms: _127  and  _128
REMARK   60  A    between atoms: _131  and  _133
REMARK   61  A    between atoms: _133  and  _134
REMARK   62  A    between atoms: _133  and  _136
REMARK   63  A    between atoms: _136  and  _137
REMARK   64  A    between atoms: _140  and  _142
REMARK   65  A    between atoms: _142  and  _143
REMARK   66  A    between atoms: _142  and  _145
REMARK   67  A    between atoms: _145  and  _146
REMARK   68  A    between atoms: _149  and  _151
REMARK   69  A    between atoms: _151  and  _152
REMARK   70  A    between atoms: _151  and  _154
REMARK   71  A    between atoms: _154  and  _155
REMARK   72  A    between atoms: _158  and  _160
REMARK   73  A    between atoms: _160  and  _161
REMARK   74  A    between atoms: _160  and  _163
REMARK   75  A    between atoms: _163  and  _164
REMARK   76  A    between atoms: _167  and  _169
REMARK   77  A    between atoms: _169  and  _170
REMARK   78  A    between atoms: _169  and  _172
REMARK   79  A    between atoms: _172  and  _173
REMARK   80  A    between atoms: _178  and  _179
REMARK   81  A    between atoms: _181  and  _183
REMARK   82  A    between atoms: _183  and  _184
REMARK   83  A    between atoms: _183  and  _186
REMARK   84  A    between atoms: _189  and  _191
REMARK   85  A    between atoms: _191  and  _192
REMARK   86  A    between atoms: _191  and  _194
REMARK   87  A    between atoms: _194  and  _195
REMARK   88  A    between atoms: _198  and  _200
REMARK   89  A    between atoms: _200  and  _201
REMARK   90  A    between atoms: _200  and  _203
REMARK   91  A    between atoms: _203  and  _204
REMARK   92  A    between atoms: _204  and  _205
REMARK   93  A    between atoms: _210  and  _212
REMARK   94  A    between atoms: _212  and  _213
REMARK   95  A    between atoms: _212  and  _215
REMARK   96  A    between atoms: _215  and  _216
REMARK   97  A    between atoms: _219  and  _221
REMARK   98  A    between atoms: _221  and  _222
REMARK   99  A    between atoms: _221  and  _224
REMARK  100  A    between atoms: _224  and  _225
REMARK  101  A    between atoms: _228  and  _230
REMARK  102  A    between atoms: _230  and  _231
REMARK  103  A    between atoms: _230  and  _233
REMARK  104  A    between atoms: _233  and  _234
REMARK  105  A    between atoms: _239  and  _241
REMARK  106  A    between atoms: _241  and  _242
REMARK  107  A    between atoms: _241  and  _244
REMARK  108  A    between atoms: _244  and  _245
REMARK  109  A    between atoms: _248  and  _250
REMARK  110  A    between atoms: _250  and  _251
REMARK  111  A    between atoms: _250  and  _253
REMARK  112  A    between atoms: _253  and  _254
REMARK  113  A    between atoms: _259  and  _261
REMARK  114  A    between atoms: _261  and  _262
REMARK  115  A    between atoms: _261  and  _264
REMARK  116  A    between atoms: _264  and  _265
REMARK  117  A    between atoms: _268  and  _270
REMARK  118  A    between atoms: _270  and  _271
REMARK  119  A    between atoms: _270  and  _273
REMARK  120  A    between atoms: _273  and  _274
REMARK  121  A    between atoms: _280  and  _282
REMARK  122  A    between atoms: _282  and  _283
REMARK  123  A    between atoms: _282  and  _285
REMARK  124  A    between atoms: _285  and  _286
REMARK  125  A    between atoms: _296  and  _298
REMARK  126  A    between atoms: _298  and  _299
REMARK  127  A    between atoms: _298  and  _301
REMARK  128  A    between atoms: _301  and  _302
REMARK  129  A    between atoms: _306  and  ZN_316
REMARK  130  A    between atoms: _307  and  _309
REMARK  131  A    between atoms: _309  and  _310
REMARK  132  A    between atoms: _309  and  _312
REMARK  133  A    between atoms: _312  and  _313
REMARK                            x       y       z     vdW  Elec       q    Type
REMARK                         _______ _______ _______ _____ _____    ______ ____
ROOT
ATOM      1  C   LEU A   2     -19.562  -4.877  19.068  0.00  0.00    +0.241 C 
ATOM      2  O   LEU A   2     -20.124  -4.608  20.120  0.00  0.00    -0.273 OA
ATOM      3  N   ASP A   3     -19.005  -3.944  18.290  0.00  0.00    -0.297 N 
ATOM      4  H   ASP A   3     -18.547  -4.207  17.394  0.00  0.00    +0.150 HD
ENDROOT
BRANCH   3   5
ATOM      5  CA  ASP A   3     -19.052  -2.534  18.725  0.00  0.00    +0.160 C 
BRANCH   5   6
ATOM      6  C   ASP A   3     -18.931  -1.645  17.477  0.00  0.00    +0.241 C 
ATOM      7  N   LEU A   4     -19.696  -0.548  17.471  0.00  0.00    -0.298 N 
ATOM      8  H   LEU A   4     -20.361  -0.400  18.257  0.00  0.00    +0.150 HD
ATOM      9  O   ASP A   3     -18.211  -1.964  16.523  0.00  0.00    -0.273 OA
BRANCH   7  10
ATOM     10  CA  LEU A   4     -19.636   0.467  16.391  0.00  0.00    +0.137 C 
BRANCH  10  11
ATOM     11  C   LEU A   4     -19.968  -0.075  15.035  0.00  0.00    +0.227 C 
ATOM     12  O   LEU A   4     -19.317   0.224  14.045  0.00  0.00    -0.286 OA
ENDBRANCH  10  11
BRANCH  10  13
ATOM     13  CB  LEU A   4     -18.215   1.124  16.376  0.00  0.00    +0.028 C 
BRANCH  13  14
ATOM     14  CG  LEU A   4     -17.693   1.653  17.713  0.00  0.00    +0.002 C 
ATOM     15  CD2 LEU A   4     -18.691   2.616  18.378  0.00  0.00    +0.000 C 
ATOM     16  CD1 LEU A   4     -16.331   2.372  17.450  0.00  0.00    +0.000 C 
ENDBRANCH  13  14
ENDBRANCH  10  13
ENDBRANCH   7  10
ENDBRANCH   5   6
BRANCH   5  17
ATOM     17  CB  ASP A   3     -17.851  -2.265  19.658  0.00  0.00    +0.143 C 
BRANCH  17  18
ATOM     18  CG  ASP A   3     -17.986  -1.003  20.480  0.00  0.00    +0.367 C 
ATOM     19  OD2 ASP A   3     -17.033  -0.738  21.291  0.00  0.00    -0.246 OA
ATOM     20  OD1 ASP A   3     -18.976  -0.272  20.373  0.00  0.00    -0.246 OA
ENDBRANCH  17  18
ENDBRANCH   5  17
ENDBRANCH   3   5
BRANCH   1  21
ATOM     21  CA  LEU A   2     -19.505  -6.312  18.567  0.00  0.00    +0.149 C 
BRANCH  21  23
ATOM     22  C   LEU A   1     -17.729  -7.491  19.803  0.00  0.00    +0.238 C 
ATOM     23  N   LEU A   2     -18.998  -7.153  19.679  0.00  0.00    -0.297 N 
ATOM     24  H   LEU A   2     -19.674  -7.491  20.393  0.00  0.00    +0.150 HD
ATOM     25  O   LEU A   1     -16.857  -7.180  19.003  0.00  0.00    -0.274 OA
BRANCH  22  26
ATOM     26  CA  LEU A   1     -17.383  -8.363  21.003  0.00  0.00    +0.145 C 
BRANCH  26  27
ATOM     27  N   LEU A   1     -16.853  -9.653  20.552  0.00  0.00    -0.238 NA
ATOM     28  H   LEU A   1     -15.877  -9.707  20.198  0.00  0.00    +0.142 HD
ENDBRANCH  26  27
BRANCH  26  29
ATOM     29  CB  LEU A   1     -16.315  -7.652  21.853  0.00  0.00    +0.026 C 
BRANCH  29  30
ATOM     30  CG  LEU A   1     -16.691  -6.234  22.304  0.00  0.00    +0.002 C 
ATOM     31  CD2 LEU A   1     -17.976  -6.281  23.176  0.00  0.00    +0.000 C 
ATOM     32  CD1 LEU A   1     -15.554  -5.615  23.117  0.00  0.00    +0.000 C 
ENDBRANCH  29  30
ENDBRANCH  26  29
ENDBRANCH  22  26
ENDBRANCH  21  23
BRANCH  21  33
ATOM     33  CB  LEU A   2     -20.938  -6.709  18.180  0.00  0.00    +0.029 C 
BRANCH  33  34
ATOM     34  CG  LEU A   2     -21.190  -8.058  17.510  0.00  0.00    +0.002 C 
ATOM     35  CD2 LEU A   2     -20.835  -9.205  18.401  0.00  0.00    +0.000 C 
ATOM     36  CD1 LEU A   2     -22.718  -8.122  17.203  0.00  0.00    +0.000 C 
ENDBRANCH  33  34
ENDBRANCH  21  33
ENDBRANCH   1  21
TORSDOF 16
REMARK  Name = ../refined-set-2016/2afw/2afw_pocket.pdb
REMARK  133 active torsions:
REMARK  status: ('A' for Active; 'I' for Inactive)
REMARK    1  A    between atoms: _1  and  _3
REMARK    2  A    between atoms: _3  and  _4
REMARK    3  A    between atoms: _3  and  _6
REMARK    4  A    between atoms: _6  and  _7
REMARK    5  A    between atoms: _12  and  _14
REMARK    6  A    between atoms: _14  and  _15
REMARK    7  A    between atoms: _14  and  _17
REMARK    8  A    between atoms: _17  and  _18
REMARK    9  A    between atoms: _21  and  _23
REMARK   10  A    between atoms: _23  and  _24
REMARK   11  A    between atoms: _23  and  _26
REMARK   12  A    between atoms: _26  and  _27
REMARK   13  A    between atoms: _27  and  _28
REMARK   14  A    between atoms: _28  and  _29
REMARK   15  A    between atoms: _29  and  _30
REMARK   16  A    between atoms: _34  and  _36
REMARK   17  A    between atoms: _36  and  _37
REMARK   18  A    between atoms: _36  and  _39
REMARK   19  A    between atoms: _39  and  _40
REMARK   20  A    between atoms: _46  and  _48
REMARK   21  A    between atoms: _48  and  _49
REMARK   22  A    between atoms: _48  and  _51
REMARK   23  A    between atoms: _51  and  _52
REMARK   24  A    between atoms: _55  and  _57
REMARK   25  A    between atoms: _57  and  _58
REMARK   26  A    between atoms: _57  and  _60
REMARK   27  A    between atoms: _60  and  _61
REMARK   28  A    between atoms: _61  and  _63
REMARK   29  A    between atoms: _63  and  ZN_316
REMARK   30  A    between atoms: _64  and  _66
REMARK   31  A    between atoms: _66  and  _67
REMARK   32  A    between atoms: _66  and  _69
REMARK   33  A    between atoms: _69  and  _70
REMARK   34  A    between atoms: _72  and  _74
REMARK   35  A    between atoms: _74  and  _75
REMARK   36  A    between atoms: _74  and  _77
REMARK   37  A    between atoms: _77  and  _78
REMARK   38  A    between atoms: _78  and  _79
REMARK   39  A    between atoms: _82  and  _84
REMARK   40  A    between atoms: _84  and  _85
REMARK   41  A    between atoms: _84  and  _87
REMARK   42  A    between atoms: _87  and  _88
REMARK   43  A    between atoms: _88  and  _89
REMARK   44  A    between atoms: _89  and  _91
REMARK   45  A    between atoms: _91  and  ZN_316
REMARK   46  A    between atoms: _92  and  _94
REMARK   47  A    between atoms: _94  and  _95
REMARK   48  A    between atoms: _98  and  _100
REMARK   49  A    between atoms: _100  and  _101
REMARK   50  A    between atoms: _100  and  _103
REMARK   51  A    between atoms: _103  and  _104
REMARK   52  A    between atoms: _114  and  _116
REMARK   53  A    between atoms: _116  and  _117
REMARK   54  A    between atoms: _116  and  _119
REMARK   55  A    between atoms: _119  and  _120
REMARK   56  A    between atoms: _122  and  _124
REMARK   57  A    between atoms: _124  and  _125
REMARK   58  A    between atoms: _124  and  _127
REMARK   59  A    between atoms: _127  and  _128
REMARK   60  A    between atoms: _131  and  _133
REMARK   61  A    between atoms: _133  and  _134
REMARK   62  A    between atoms: _133  and  _136
REMARK   63  A    between atoms: _136  and  _137
REMARK   64  A    between atoms: _140  and  _142
REMARK   65  A    between atoms: _142  and  _143
REMARK   66  A    between atoms: _142  and  _145
REMARK   67  A    between atoms: _145  and  _146
REMARK   68  A    between atoms: _149  and  _151
REMARK   69  A    between atoms: _151  and  _152
REMARK   70  A    between atoms: _151  and  _154
REMARK   71  A    between atoms: _154  and  _155
REMARK   72  A    between atoms: _158  and  _160
REMARK   73  A    between atoms: _160  and  _161
REMARK   74  A    between atoms: _160  and  _163
REMARK   75  A    between atoms: _163  and  _164
REMARK   76  A    between atoms: _167  and  _169
REMARK   77  A    between atoms: _169  and  _170
REMARK   78  A    between atoms: _169  and  _172
REMARK   79  A    between atoms: _172  and  _173
REMARK   80  A    between atoms: _178  and  _179
REMARK   81  A    between atoms: _181  and  _183
REMARK   82  A    between atoms: _183  and  _184
REMARK   83  A    between atoms: _183  and  _186
REMARK   84  A    between atoms: _189  and  _191
REMARK   85  A    between atoms: _191  and  _192
REMARK   86  A    between atoms: _191  and  _194
REMARK   87  A    between atoms: _194  and  _195
REMARK   88  A    between atoms: _198  and  _200
REMARK   89  A    between atoms: _200  and  _201
REMARK   90  A    between atoms: _200  and  _203
REMARK   91  A    between atoms: _203  and  _204
REMARK   92  A    between atoms: _204  and  _205
REMARK   93  A    between atoms: _210  and  _212
REMARK   94  A    between atoms: _212  and  _213
REMARK   95  A    between atoms: _212  and  _215
REMARK   96  A    between atoms: _215  and  _216
REMARK   97  A    between atoms: _219  and  _221
REMARK   98  A    between atoms: _221  and  _222
REMARK   99  A    between atoms: _221  and  _224
REMARK  100  A    between atoms: _224  and  _225
REMARK  101  A    between atoms: _228  and  _230
REMARK  102  A    between atoms: _230  and  _231
REMARK  103  A    between atoms: _230  and  _233
REMARK  104  A    between atoms: _233  and  _234
REMARK  105  A    between atoms: _239  and  _241
REMARK  106  A    between atoms: _241  and  _242
REMARK  107  A    between atoms: _241  and  _244
REMARK  108  A    between atoms: _244  and  _245
REMARK  109  A    between atoms: _248  and  _250
REMARK  110  A    between atoms: _250  and  _251
REMARK  111  A    between atoms: _250  and  _253
REMARK  112  A    between atoms: _253  and  _254
REMARK  113  A    between atoms: _259  and  _261
REMARK  114  A    between atoms: _261  and  _262
REMARK  115  A    between atoms: _261  and  _264
REMARK  116  A    between atoms: _264  and  _265
REMARK  117  A    between atoms: _268  and  _270
REMARK  118  A    between atoms: _270  and  _271
REMARK  119  A    between atoms: _270  and  _273
REMARK  120  A    between atoms: _273  and  _274
REMARK  121  A    between atoms: _280  and  _282
REMARK  122  A    between atoms: _282  and  _283
REMARK  123  A    between atoms: _282  and  _285
REMARK  124  A    between atoms: _285  and  _286
REMARK  125  A    between atoms: _296  and  _298
REMARK  126  A    between atoms: _298  and  _299
REMARK  127  A    between atoms: _298  and  _301
REMARK  128  A    between atoms: _301  and  _302
REMARK  129  A    between atoms: _306  and  ZN_316
REMARK  130  A    between atoms: _307  and  _309
REMARK  131  A    between atoms: _309  and  _310
REMARK  132  A    between atoms: _309  and  _312
REMARK  133  A    between atoms: _312  and  _313
REMARK                            x       y       z     vdW  Elec       q    Type
REMARK                         _______ _______ _______ _____ _____    ______ ____
ROOT
ATOM      1  CG  TYR A   1      -5.496  -2.008  14.695  0.00  0.00    -0.020 A 
ATOM      2  CD2 TYR A   1      -5.211  -1.897  16.060  0.00  0.00    -0.001 A 
ATOM      3  CE2 TYR A   1      -5.454  -0.731  16.743  0.00  0.00    +0.036 A 
ATOM      4  CZ  TYR A   1      -5.984   0.351  16.058  0.00  0.00    +0.134 A 
ATOM      5  CE1 TYR A   1      -6.274   0.266  14.706  0.00  0.00    +0.036 A 
ATOM      6  CD1 TYR A   1      -6.030  -0.907  14.036  0.00  0.00    -0.001 A 
ENDROOT
BRANCH   4   7
ATOM      7  OH  TYR A   1      -6.211   1.523  16.718  0.00  0.00    -0.506 OA
ATOM      8  HH  TYR A   1      -5.954   1.420  17.669  0.00  0.00    +0.292 HD
ENDBRANCH   4   7
BRANCH   1   9
ATOM      9  CB  TYR A   1      -5.265  -3.285  13.969  0.00  0.00    +0.051 C 
BRANCH   9  10
ATOM     10  CA  TYR A   1      -3.804  -3.646  13.754  0.00  0.00    +0.137 C 
BRANCH  10  11
ATOM     11  N   TYR A   1      -3.753  -4.960  13.183  0.00  0.00    -0.239 NA
ATOM     12  H   TYR A   1      -3.607  -5.781  13.805  0.00  0.00    +0.142 HD
ENDBRANCH  10  11
BRANCH  10  13
ATOM     13  C   TYR A   1      -3.045  -3.821  15.061  0.00  0.00    +0.224 C 
ATOM     14  O   TYR A   1      -3.593  -4.327  16.043  0.00  0.00    -0.287 OA
ENDBRANCH  10  13
ENDBRANCH   9  10
ENDBRANCH   1   9
TORSDOF 5
REMARK  Name = ../refined-set-2016/2afw/2afw_pocket.pdb
REMARK  133 active torsions:
REMARK  status: ('A' for Active; 'I' for Inactive)
REMARK    1  A    between atoms: _1  and  _3
REMARK    2  A    between atoms: _3  and  _4
REMARK    3  A    between atoms: _3  and  _6
REMARK    4  A    between atoms: _6  and  _7
REMARK    5  A    between atoms: _12  and  _14
REMARK    6  A    between atoms: _14  and  _15
REMARK    7  A    between atoms: _14  and  _17
REMARK    8  A    between atoms: _17  and  _18
REMARK    9  A    between atoms: _21  and  _23
REMARK   10  A    between atoms: _23  and  _24
REMARK   11  A    between atoms: _23  and  _26
REMARK   12  A    between atoms: _26  and  _27
REMARK   13  A    between atoms: _27  and  _28
REMARK   14  A    between atoms: _28  and  _29
REMARK   15  A    between atoms: _29  and  _30
REMARK   16  A    between atoms: _34  and  _36
REMARK   17  A    between atoms: _36  and  _37
REMARK   18  A    between atoms: _36  and  _39
REMARK   19  A    between atoms: _39  and  _40
REMARK   20  A    between atoms: _46  and  _48
REMARK   21  A    between atoms: _48  and  _49
REMARK   22  A    between atoms: _48  and  _51
REMARK   23  A    between atoms: _51  and  _52
REMARK   24  A    between atoms: _55  and  _57
REMARK   25  A    between atoms: _57  and  _58
REMARK   26  A    between atoms: _57  and  _60
REMARK   27  A    between atoms: _60  and  _61
REMARK   28  A    between atoms: _61  and  _63
REMARK   29  A    between atoms: _63  and  ZN_316
REMARK   30  A    between atoms: _64  and  _66
REMARK   31  A    between atoms: _66  and  _67
REMARK   32  A    between atoms: _66  and  _69
REMARK   33  A    between atoms: _69  and  _70
REMARK   34  A    between atoms: _72  and  _74
REMARK   35  A    between atoms: _74  and  _75
REMARK   36  A    between atoms: _74  and  _77
REMARK   37  A    between atoms: _77  and  _78
REMARK   38  A    between atoms: _78  and  _79
REMARK   39  A    between atoms: _82  and  _84
REMARK   40  A    between atoms: _84  and  _85
REMARK   41  A    between atoms: _84  and  _87
REMARK   42  A    between atoms: _87  and  _88
REMARK   43  A    between atoms: _88  and  _89
REMARK   44  A    between atoms: _89  and  _91
REMARK   45  A    between atoms: _91  and  ZN_316
REMARK   46  A    between atoms: _92  and  _94
REMARK   47  A    between atoms: _94  and  _95
REMARK   48  A    between atoms: _98  and  _100
REMARK   49  A    between atoms: _100  and  _101
REMARK   50  A    between atoms: _100  and  _103
REMARK   51  A    between atoms: _103  and  _104
REMARK   52  A    between atoms: _114  and  _116
REMARK   53  A    between atoms: _116  and  _117
REMARK   54  A    between atoms: _116  and  _119
REMARK   55  A    between atoms: _119  and  _120
REMARK   56  A    between atoms: _122  and  _124
REMARK   57  A    between atoms: _124  and  _125
REMARK   58  A    between atoms: _124  and  _127
REMARK   59  A    between atoms: _127  and  _128
REMARK   60  A    between atoms: _131  and  _133
REMARK   61  A    between atoms: _133  and  _134
REMARK   62  A    between atoms: _133  and  _136
REMARK   63  A    between atoms: _136  and  _137
REMARK   64  A    between atoms: _140  and  _142
REMARK   65  A    between atoms: _142  and  _143
REMARK   66  A    between atoms: _142  and  _145
REMARK   67  A    between atoms: _145  and  _146
REMARK   68  A    between atoms: _149  and  _151
REMARK   69  A    between atoms: _151  and  _152
REMARK   70  A    between atoms: _151  and  _154
REMARK   71  A    between atoms: _154  and  _155
REMARK   72  A    between atoms: _158  and  _160
REMARK   73  A    between atoms: _160  and  _161
REMARK   74  A    between atoms: _160  and  _163
REMARK   75  A    between atoms: _163  and  _164
REMARK   76  A    between atoms: _167  and  _169
REMARK   77  A    between atoms: _169  and  _170
REMARK   78  A    between atoms: _169  and  _172
REMARK   79  A    between atoms: _172  and  _173
REMARK   80  A    between atoms: _178  and  _179
REMARK   81  A    between atoms: _181  and  _183
REMARK   82  A    between atoms: _183  and  _184
REMARK   83  A    between atoms: _183  and  _186
REMARK   84  A    between atoms: _189  and  _191
REMARK   85  A    between atoms: _191  and  _192
REMARK   86  A    between atoms: _191  and  _194
REMARK   87  A    between atoms: _194  and  _195
REMARK   88  A    between atoms: _198  and  _200
REMARK   89  A    between atoms: _200  and  _201
REMARK   90  A    between atoms: _200  and  _203
REMARK   91  A    between atoms: _203  and  _204
REMARK   92  A    between atoms: _204  and  _205
REMARK   93  A    between atoms: _210  and  _212
REMARK   94  A    between atoms: _212  and  _213
REMARK   95  A    between atoms: _212  and  _215
REMARK   96  A    between atoms: _215  and  _216
REMARK   97  A    between atoms: _219  and  _221
REMARK   98  A    between atoms: _221  and  _222
REMARK   99  A    between atoms: _221  and  _224
REMARK  100  A    between atoms: _224  and  _225
REMARK  101  A    between atoms: _228  and  _230
REMARK  102  A    between atoms: _230  and  _231
REMARK  103  A    between atoms: _230  and  _233
REMARK  104  A    between atoms: _233  and  _234
REMARK  105  A    between atoms: _239  and  _241
REMARK  106  A    between atoms: _241  and  _242
REMARK  107  A    between atoms: _241  and  _244
REMARK  108  A    between atoms: _244  and  _245
REMARK  109  A    between atoms: _248  and  _250
REMARK  110  A    between atoms: _250  and  _251
REMARK  111  A    between atoms: _250  and  _253
REMARK  112  A    between atoms: _253  and  _254
REMARK  113  A    between atoms: _259  and  _261
REMARK  114  A    between atoms: _261  and  _262
REMARK  115  A    between atoms: _261  and  _264
REMARK  116  A    between atoms: _264  and  _265
REMARK  117  A    between atoms: _268  and  _270
REMARK  118  A    between atoms: _270  and  _271
REMARK  119  A    between atoms: _270  and  _273
REMARK  120  A    between atoms: _273  and  _274
REMARK  121  A    between atoms: _280  and  _282
REMARK  122  A    between atoms: _282  and  _283
REMARK  123  A    between atoms: _282  and  _285
REMARK  124  A    between atoms: _285  and  _286
REMARK  125  A    between atoms: _296  and  _298
REMARK  126  A    between atoms: _298  and  _299
REMARK  127  A    between atoms: _298  and  _301
REMARK  128  A    between atoms: _301  and  _302
REMARK  129  A    between atoms: _306  and  ZN_316
REMARK  130  A    between atoms: _307  and  _309
REMARK  131  A    between atoms: _309  and  _310
REMARK  132  A    between atoms: _309  and  _312
REMARK  133  A    between atoms: _312  and  _313
REMARK                            x       y       z     vdW  Elec       q    Type
REMARK                         _______ _______ _______ _____ _____    ______ ____
ROOT
ATOM      1  CA  ASP A   4     -13.187  -1.550  24.848  0.00  0.00    +0.160 C 
ENDROOT
BRANCH   1   2
ATOM      2  C   ASP A   4     -13.454  -2.638  25.904  0.00  0.00    +0.241 C 
ATOM      3  O   ASP A   4     -12.559  -3.059  26.641  0.00  0.00    -0.273 OA
ATOM      4  N   ASP A   5     -14.692  -3.085  25.949  0.00  0.00    -0.297 N 
ATOM      5  H   ASP A   5     -15.380  -2.714  25.264  0.00  0.00    +0.150 HD
BRANCH   4   6
ATOM      6  CA  ASP A   5     -15.143  -4.087  26.927  0.00  0.00    +0.160 C 
BRANCH   6   7
ATOM      7  C   ASP A   5     -14.393  -5.407  26.925  0.00  0.00    +0.241 C 
ATOM      8  O   ASP A   5     -14.518  -6.173  27.897  0.00  0.00    -0.273 OA
ATOM      9  N   HIS A   6     -13.649  -5.693  25.863  0.00  0.00    -0.297 N 
ATOM     10  H   HIS A   6     -13.598  -5.044  25.052  0.00  0.00    +0.150 HD
BRANCH   9  11
ATOM     11  CA  HIS A   6     -12.904  -6.950  25.873  0.00  0.00    +0.155 C 
BRANCH  11  12
ATOM     12  C   HIS A   6     -11.649  -6.858  26.714  0.00  0.00    +0.241 C 
ATOM     13  O   HIS A   6     -11.095  -7.882  27.105  0.00  0.00    -0.273 OA
ATOM     14  N   ILE A   7     -11.174  -5.656  26.992  0.00  0.00    -0.298 N 
ATOM     15  H   ILE A   7     -11.709  -4.810  26.710  0.00  0.00    +0.150 HD
BRANCH  14  16
ATOM     16  CA  ILE A   7      -9.896  -5.511  27.697  0.00  0.00    +0.137 C 
BRANCH  16  17
ATOM     17  CB  ILE A   7      -9.544  -3.982  27.858  0.00  0.00    +0.026 C 
ATOM     18  CG2 ILE A   7      -8.350  -3.765  28.913  0.00  0.00    +0.002 C 
BRANCH  17  19
ATOM     19  CG1 ILE A   7      -9.198  -3.402  26.482  0.00  0.00    +0.002 C 
ATOM     20  CD1 ILE A   7      -7.898  -3.859  25.878  0.00  0.00    +0.000 C 
ENDBRANCH  17  19
ENDBRANCH  16  17
BRANCH  16  21
ATOM     21  C   ILE A   7      -9.780  -6.250  29.037  0.00  0.00    +0.227 C 
ATOM     22  O   ILE A   7      -8.797  -6.942  29.260  0.00  0.00    -0.286 OA
ENDBRANCH  16  21
ENDBRANCH  14  16
ENDBRANCH  11  12
BRANCH  11  23
ATOM     23  CB  HIS A   6     -12.485  -7.326  24.448  0.00  0.00    +0.076 C 
BRANCH  23  24
ATOM     24  CG  HIS A   6     -11.509  -6.361  23.855  0.00  0.00    +0.082 A 
ATOM     25  ND1 HIS A   6     -11.797  -5.019  23.740  0.00  0.00    -0.227 NA
ATOM     26  CE1 HIS A   6     -10.725  -4.370  23.313  0.00  0.00    +0.199 A 
ATOM     27  NE2 HIS A   6      -9.749  -5.249  23.140  0.00  0.00    -0.221 NA
ATOM     28  CD2 HIS A   6     -10.217  -6.503  23.461  0.00  0.00    +0.115 A 
ENDBRANCH  23  24
ENDBRANCH  11  23
ENDBRANCH   9  11
ENDBRANCH   6   7
BRANCH   6  29
ATOM     29  CB  ASP A   5     -16.634  -4.375  26.717  0.00  0.00    +0.143 C 
BRANCH  29  30
ATOM     30  CG  ASP A   5     -17.527  -3.255  27.199  0.00  0.00    +0.367 C 
ATOM     31  OD2 ASP A   5     -17.248  -2.674  28.264  0.00  0.00    -0.246 OA
ATOM     32  OD1 ASP A   5     -18.524  -2.991  26.495  0.00  0.00    -0.246 OA
ENDBRANCH  29  30
ENDBRANCH   6  29
ENDBRANCH   4   6
ENDBRANCH   1   2
BRANCH   1  34
ATOM     33  C   GLN A   3     -11.307  -0.060  24.452  0.00  0.00    +0.241 C 
ATOM     34  N   ASP A   4     -11.783  -1.188  24.979  0.00  0.00    -0.297 N 
ATOM     35  H   ASP A   4     -11.139  -1.822  25.494  0.00  0.00    +0.150 HD
ATOM     36  O   GLN A   3     -12.004   0.712  23.794  0.00  0.00    -0.273 OA
BRANCH  33  37
ATOM     37  CA  GLN A   3      -9.828   0.229  24.686  0.00  0.00    +0.149 C 
BRANCH  37  39
ATOM     38  C   ILE A   2      -8.913  -0.509  22.598  0.00  0.00    +0.241 C 
ATOM     39  N   GLN A   3      -9.214   0.497  23.395  0.00  0.00    -0.297 N 
ATOM     40  H   GLN A   3      -9.014   1.475  23.103  0.00  0.00    +0.150 HD
ATOM     41  O   ILE A   2      -9.041  -1.687  22.961  0.00  0.00    -0.273 OA
BRANCH  38  42
ATOM     42  CA  ILE A   2      -8.301  -0.177  21.230  0.00  0.00    +0.148 C 
BRANCH  42  44
ATOM     43  C   VAL A   1      -5.920  -0.369  21.226  0.00  0.00    +0.238 C 
ATOM     44  N   ILE A   2      -7.094  -0.985  21.206  0.00  0.00    -0.297 N 
ATOM     45  H   ILE A   2      -7.149  -2.023  21.174  0.00  0.00    +0.150 HD
ATOM     46  O   VAL A   1      -5.828   0.852  21.167  0.00  0.00    -0.274 OA
BRANCH  43  47
ATOM     47  CA  VAL A   1      -4.668  -1.235  21.297  0.00  0.00    +0.145 C 
BRANCH  47  48
ATOM     48  CB  VAL A   1      -4.087  -1.165  22.741  0.00  0.00    +0.025 C 
ATOM     49  CG2 VAL A   1      -5.089  -1.721  23.742  0.00  0.00    +0.002 C 
ATOM     50  CG1 VAL A   1      -2.770  -1.932  22.810  0.00  0.00    +0.002 C 
ENDBRANCH  47  48
BRANCH  47  51
ATOM     51  N   VAL A   1      -3.719  -0.722  20.344  0.00  0.00    -0.238 NA
ATOM     52  H   VAL A   1      -3.295   0.217  20.483  0.00  0.00    +0.142 HD
ENDBRANCH  47  51
ENDBRANCH  43  47
ENDBRANCH  42  44
BRANCH  42  53
ATOM     53  CB  ILE A   2      -9.273  -0.545  20.111  0.00  0.00    +0.027 C 
ATOM     54  CG2 ILE A   2     -10.613   0.206  20.337  0.00  0.00    +0.002 C 
BRANCH  53  55
ATOM     55  CG1 ILE A   2      -8.660  -0.185  18.749  0.00  0.00    +0.002 C 
ATOM     56  CD1 ILE A   2      -9.492  -0.506  17.548  0.00  0.00    +0.000 C 
ENDBRANCH  53  55
ENDBRANCH  42  53
ENDBRANCH  38  42
ENDBRANCH  37  39
BRANCH  37  57
ATOM     57  CB  GLN A   3      -9.698   1.430  25.615  0.00  0.00    +0.039 C 
BRANCH  57  58
ATOM     58  CG  GLN A   3      -8.278   1.668  26.123  0.00  0.00    +0.087 C 
BRANCH  58  59
ATOM     59  CD  GLN A   3      -7.782   0.499  26.952  0.00  0.00    +0.219 C 
ATOM     60  OE1 GLN A   3      -8.400   0.127  27.944  0.00  0.00    -0.275 OA
ATOM     61  NE2 GLN A   3      -6.677  -0.094  26.538  0.00  0.00    -0.329 N 
ATOM     62 HE21 GLN A   3      -6.298  -0.911  27.059  0.00  0.00    +0.145 HD
ATOM     63 HE22 GLN A   3      -6.185   0.256  25.691  0.00  0.00    +0.145 HD
ENDBRANCH  58  59
ENDBRANCH  57  58
ENDBRANCH  37  57
ENDBRANCH  33  37
ENDBRANCH   1  34
BRANCH   1  64
ATOM     64  CB  ASP A   4     -13.460  -2.093  23.433  0.00  0.00    +0.143 C 
BRANCH  64  65
ATOM     65  CG  ASP A   4     -14.926  -1.964  23.006  0.00  0.00    +0.367 C 
ATOM     66  OD2 ASP A   4     -15.786  -1.676  23.849  0.00  0.00    -0.246 OA
ATOM     67  OD1 ASP A   4     -15.157  -2.169  21.801  0.00  0.00    -0.246 OA
ENDBRANCH  64  65
ENDBRANCH   1  64
TORSDOF 28
REMARK  Name = ../refined-set-2016/2afw/2afw_pocket.pdb
REMARK  133 active torsions:
REMARK  status: ('A' for Active; 'I' for Inactive)
REMARK    1  A    between atoms: _1  and  _3
REMARK    2  A    between atoms: _3  and  _4
REMARK    3  A    between atoms: _3  and  _6
REMARK    4  A    between atoms: _6  and  _7
REMARK    5  A    between atoms: _12  and  _14
REMARK    6  A    between atoms: _14  and  _15
REMARK    7  A    between atoms: _14  and  _17
REMARK    8  A    between atoms: _17  and  _18
REMARK    9  A    between atoms: _21  and  _23
REMARK   10  A    between atoms: _23  and  _24
REMARK   11  A    between atoms: _23  and  _26
REMARK   12  A    between atoms: _26  and  _27
REMARK   13  A    between atoms: _27  and  _28
REMARK   14  A    between atoms: _28  and  _29
REMARK   15  A    between atoms: _29  and  _30
REMARK   16  A    between atoms: _34  and  _36
REMARK   17  A    between atoms: _36  and  _37
REMARK   18  A    between atoms: _36  and  _39
REMARK   19  A    between atoms: _39  and  _40
REMARK   20  A    between atoms: _46  and  _48
REMARK   21  A    between atoms: _48  and  _49
REMARK   22  A    between atoms: _48  and  _51
REMARK   23  A    between atoms: _51  and  _52
REMARK   24  A    between atoms: _55  and  _57
REMARK   25  A    between atoms: _57  and  _58
REMARK   26  A    between atoms: _57  and  _60
REMARK   27  A    between atoms: _60  and  _61
REMARK   28  A    between atoms: _61  and  _63
REMARK   29  A    between atoms: _63  and  ZN_316
REMARK   30  A    between atoms: _64  and  _66
REMARK   31  A    between atoms: _66  and  _67
REMARK   32  A    between atoms: _66  and  _69
REMARK   33  A    between atoms: _69  and  _70
REMARK   34  A    between atoms: _72  and  _74
REMARK   35  A    between atoms: _74  and  _75
REMARK   36  A    between atoms: _74  and  _77
REMARK   37  A    between atoms: _77  and  _78
REMARK   38  A    between atoms: _78  and  _79
REMARK   39  A    between atoms: _82  and  _84
REMARK   40  A    between atoms: _84  and  _85
REMARK   41  A    between atoms: _84  and  _87
REMARK   42  A    between atoms: _87  and  _88
REMARK   43  A    between atoms: _88  and  _89
REMARK   44  A    between atoms: _89  and  _91
REMARK   45  A    between atoms: _91  and  ZN_316
REMARK   46  A    between atoms: _92  and  _94
REMARK   47  A    between atoms: _94  and  _95
REMARK   48  A    between atoms: _98  and  _100
REMARK   49  A    between atoms: _100  and  _101
REMARK   50  A    between atoms: _100  and  _103
REMARK   51  A    between atoms: _103  and  _104
REMARK   52  A    between atoms: _114  and  _116
REMARK   53  A    between atoms: _116  and  _117
REMARK   54  A    between atoms: _116  and  _119
REMARK   55  A    between atoms: _119  and  _120
REMARK   56  A    between atoms: _122  and  _124
REMARK   57  A    between atoms: _124  and  _125
REMARK   58  A    between atoms: _124  and  _127
REMARK   59  A    between atoms: _127  and  _128
REMARK   60  A    between atoms: _131  and  _133
REMARK   61  A    between atoms: _133  and  _134
REMARK   62  A    between atoms: _133  and  _136
REMARK   63  A    between atoms: _136  and  _137
REMARK   64  A    between atoms: _140  and  _142
REMARK   65  A    between atoms: _142  and  _143
REMARK   66  A    between atoms: _142  and  _145
REMARK   67  A    between atoms: _145  and  _146
REMARK   68  A    between atoms: _149  and  _151
REMARK   69  A    between atoms: _151  and  _152
REMARK   70  A    between atoms: _151  and  _154
REMARK   71  A    between atoms: _154  and  _155
REMARK   72  A    between atoms: _158  and  _160
REMARK   73  A    between atoms: _160  and  _161
REMARK   74  A    between atoms: _160  and  _163
REMARK   75  A    between atoms: _163  and  _164
REMARK   76  A    between atoms: _167  and  _169
REMARK   77  A    between atoms: _169  and  _170
REMARK   78  A    between atoms: _169  and  _172
REMARK   79  A    between atoms: _172  and  _173
REMARK   80  A    between atoms: _178  and  _179
REMARK   81  A    between atoms: _181  and  _183
REMARK   82  A    between atoms: _183  and  _184
REMARK   83  A    between atoms: _183  and  _186
REMARK   84  A    between atoms: _189  and  _191
REMARK   85  A    between atoms: _191  and  _192
REMARK   86  A    between atoms: _191  and  _194
REMARK   87  A    between atoms: _194  and  _195
REMARK   88  A    between atoms: _198  and  _200
REMARK   89  A    between atoms: _200  and  _201
REMARK   90  A    between atoms: _200  and  _203
REMARK   91  A    between atoms: _203  and  _204
REMARK   92  A    between atoms: _204  and  _205
REMARK   93  A    between atoms: _210  and  _212
REMARK   94  A    between atoms: _212  and  _213
REMARK   95  A    between atoms: _212  and  _215
REMARK   96  A    between atoms: _215  and  _216
REMARK   97  A    between atoms: _219  and  _221
REMARK   98  A    between atoms: _221  and  _222
REMARK   99  A    between atoms: _221  and  _224
REMARK  100  A    between atoms: _224  and  _225
REMARK  101  A    between atoms: _228  and  _230
REMARK  102  A    between atoms: _230  and  _231
REMARK  103  A    between atoms: _230  and  _233
REMARK  104  A    between atoms: _233  and  _234
REMARK  105  A    between atoms: _239  and  _241
REMARK  106  A    between atoms: _241  and  _242
REMARK  107  A    between atoms: _241  and  _244
REMARK  108  A    between atoms: _244  and  _245
REMARK  109  A    between atoms: _248  and  _250
REMARK  110  A    between atoms: _250  and  _251
REMARK  111  A    between atoms: _250  and  _253
REMARK  112  A    between atoms: _253  and  _254
REMARK  113  A    between atoms: _259  and  _261
REMARK  114  A    between atoms: _261  and  _262
REMARK  115  A    between atoms: _261  and  _264
REMARK  116  A    between atoms: _264  and  _265
REMARK  117  A    between atoms: _268  and  _270
REMARK  118  A    between atoms: _270  and  _271
REMARK  119  A    between atoms: _270  and  _273
REMARK  120  A    between atoms: _273  and  _274
REMARK  121  A    between atoms: _280  and  _282
REMARK  122  A    between atoms: _282  and  _283
REMARK  123  A    between atoms: _282  and  _285
REMARK  124  A    between atoms: _285  and  _286
REMARK  125  A    between atoms: _296  and  _298
REMARK  126  A    between atoms: _298  and  _299
REMARK  127  A    between atoms: _298  and  _301
REMARK  128  A    between atoms: _301  and  _302
REMARK  129  A    between atoms: _306  and  ZN_316
REMARK  130  A    between atoms: _307  and  _309
REMARK  131  A    between atoms: _309  and  _310
REMARK  132  A    between atoms: _309  and  _312
REMARK  133  A    between atoms: _312  and  _313
REMARK                            x       y       z     vdW  Elec       q    Type
REMARK                         _______ _______ _______ _____ _____    ______ ____
ROOT
ATOM      1  CB  HIS A   1     -11.948  -7.061  18.975  0.00  0.00    +0.072 C 
ENDROOT
BRANCH   1   2
ATOM      2  CG  HIS A   1     -12.446  -5.766  19.551  0.00  0.00    +0.082 A 
ATOM      3  ND1 HIS A   1     -11.584  -4.761  19.940  0.00  0.00    -0.227 NA
ATOM      4  CE1 HIS A   1     -12.280  -3.746  20.430  0.00  0.00    +0.199 A 
ATOM      5  NE2 HIS A   1     -13.570  -4.052  20.373  0.00  0.00    -0.221 NA
ATOM      6  CD2 HIS A   1     -13.700  -5.319  19.835  0.00  0.00    +0.115 A 
ENDBRANCH   1   2
BRANCH   1   7
ATOM      7  CA  HIS A   1     -13.071  -7.963  18.410  0.00  0.00    +0.139 C 
BRANCH   7   8
ATOM      8  N   HIS A   1     -12.543  -9.307  18.202  0.00  0.00    -0.239 NA
ATOM      9  H   HIS A   1     -11.588  -9.423  17.808  0.00  0.00    +0.142 HD
ENDBRANCH   7   8
BRANCH   7  10
ATOM     10  C   HIS A   1     -13.635  -7.401  17.122  0.00  0.00    +0.224 C 
ATOM     11  O   HIS A   1     -12.913  -6.956  16.228  0.00  0.00    -0.287 OA
ENDBRANCH   7  10
ENDBRANCH   1   7
TORSDOF 4
REMARK  Name = ../refined-set-2016/2afw/2afw_pocket.pdb
REMARK  133 active torsions:
REMARK  status: ('A' for Active; 'I' for Inactive)
REMARK    1  A    between atoms: _1  and  _3
REMARK    2  A    between atoms: _3  and  _4
REMARK    3  A    between atoms: _3  and  _6
REMARK    4  A    between atoms: _6  and  _7
REMARK    5  A    between atoms: _12  and  _14
REMARK    6  A    between atoms: _14  and  _15
REMARK    7  A    between atoms: _14  and  _17
REMARK    8  A    between atoms: _17  and  _18
REMARK    9  A    between atoms: _21  and  _23
REMARK   10  A    between atoms: _23  and  _24
REMARK   11  A    between atoms: _23  and  _26
REMARK   12  A    between atoms: _26  and  _27
REMARK   13  A    between atoms: _27  and  _28
REMARK   14  A    between atoms: _28  and  _29
REMARK   15  A    between atoms: _29  and  _30
REMARK   16  A    between atoms: _34  and  _36
REMARK   17  A    between atoms: _36  and  _37
REMARK   18  A    between atoms: _36  and  _39
REMARK   19  A    between atoms: _39  and  _40
REMARK   20  A    between atoms: _46  and  _48
REMARK   21  A    between atoms: _48  and  _49
REMARK   22  A    between atoms: _48  and  _51
REMARK   23  A    between atoms: _51  and  _52
REMARK   24  A    between atoms: _55  and  _57
REMARK   25  A    between atoms: _57  and  _58
REMARK   26  A    between atoms: _57  and  _60
REMARK   27  A    between atoms: _60  and  _61
REMARK   28  A    between atoms: _61  and  _63
REMARK   29  A    between atoms: _63  and  ZN_316
REMARK   30  A    between atoms: _64  and  _66
REMARK   31  A    between atoms: _66  and  _67
REMARK   32  A    between atoms: _66  and  _69
REMARK   33  A    between atoms: _69  and  _70
REMARK   34  A    between atoms: _72  and  _74
REMARK   35  A    between atoms: _74  and  _75
REMARK   36  A    between atoms: _74  and  _77
REMARK   37  A    between atoms: _77  and  _78
REMARK   38  A    between atoms: _78  and  _79
REMARK   39  A    between atoms: _82  and  _84
REMARK   40  A    between atoms: _84  and  _85
REMARK   41  A    between atoms: _84  and  _87
REMARK   42  A    between atoms: _87  and  _88
REMARK   43  A    between atoms: _88  and  _89
REMARK   44  A    between atoms: _89  and  _91
REMARK   45  A    between atoms: _91  and  ZN_316
REMARK   46  A    between atoms: _92  and  _94
REMARK   47  A    between atoms: _94  and  _95
REMARK   48  A    between atoms: _98  and  _100
REMARK   49  A    between atoms: _100  and  _101
REMARK   50  A    between atoms: _100  and  _103
REMARK   51  A    between atoms: _103  and  _104
REMARK   52  A    between atoms: _114  and  _116
REMARK   53  A    between atoms: _116  and  _117
REMARK   54  A    between atoms: _116  and  _119
REMARK   55  A    between atoms: _119  and  _120
REMARK   56  A    between atoms: _122  and  _124
REMARK   57  A    between atoms: _124  and  _125
REMARK   58  A    between atoms: _124  and  _127
REMARK   59  A    between atoms: _127  and  _128
REMARK   60  A    between atoms: _131  and  _133
REMARK   61  A    between atoms: _133  and  _134
REMARK   62  A    between atoms: _133  and  _136
REMARK   63  A    between atoms: _136  and  _137
REMARK   64  A    between atoms: _140  and  _142
REMARK   65  A    between atoms: _142  and  _143
REMARK   66  A    between atoms: _142  and  _145
REMARK   67  A    between atoms: _145  and  _146
REMARK   68  A    between atoms: _149  and  _151
REMARK   69  A    between atoms: _151  and  _152
REMARK   70  A    between atoms: _151  and  _154
REMARK   71  A    between atoms: _154  and  _155
REMARK   72  A    between atoms: _158  and  _160
REMARK   73  A    between atoms: _160  and  _161
REMARK   74  A    between atoms: _160  and  _163
REMARK   75  A    between atoms: _163  and  _164
REMARK   76  A    between atoms: _167  and  _169
REMARK   77  A    between atoms: _169  and  _170
REMARK   78  A    between atoms: _169  and  _172
REMARK   79  A    between atoms: _172  and  _173
REMARK   80  A    between atoms: _178  and  _179
REMARK   81  A    between atoms: _181  and  _183
REMARK   82  A    between atoms: _183  and  _184
REMARK   83  A    between atoms: _183  and  _186
REMARK   84  A    between atoms: _189  and  _191
REMARK   85  A    between atoms: _191  and  _192
REMARK   86  A    between atoms: _191  and  _194
REMARK   87  A    between atoms: _194  and  _195
REMARK   88  A    between atoms: _198  and  _200
REMARK   89  A    between atoms: _200  and  _201
REMARK   90  A    between atoms: _200  and  _203
REMARK   91  A    between atoms: _203  and  _204
REMARK   92  A    between atoms: _204  and  _205
REMARK   93  A    between atoms: _210  and  _212
REMARK   94  A    between atoms: _212  and  _213
REMARK   95  A    between atoms: _212  and  _215
REMARK   96  A    between atoms: _215  and  _216
REMARK   97  A    between atoms: _219  and  _221
REMARK   98  A    between atoms: _221  and  _222
REMARK   99  A    between atoms: _221  and  _224
REMARK  100  A    between atoms: _224  and  _225
REMARK  101  A    between atoms: _228  and  _230
REMARK  102  A    between atoms: _230  and  _231
REMARK  103  A    between atoms: _230  and  _233
REMARK  104  A    between atoms: _233  and  _234
REMARK  105  A    between atoms: _239  and  _241
REMARK  106  A    between atoms: _241  and  _242
REMARK  107  A    between atoms: _241  and  _244
REMARK  108  A    between atoms: _244  and  _245
REMARK  109  A    between atoms: _248  and  _250
REMARK  110  A    between atoms: _250  and  _251
REMARK  111  A    between atoms: _250  and  _253
REMARK  112  A    between atoms: _253  and  _254
REMARK  113  A    between atoms: _259  and  _261
REMARK  114  A    between atoms: _261  and  _262
REMARK  115  A    between atoms: _261  and  _264
REMARK  116  A    between atoms: _264  and  _265
REMARK  117  A    between atoms: _268  and  _270
REMARK  118  A    between atoms: _270  and  _271
REMARK  119  A    between atoms: _270  and  _273
REMARK  120  A    between atoms: _273  and  _274
REMARK  121  A    between atoms: _280  and  _282
REMARK  122  A    between atoms: _282  and  _283
REMARK  123  A    between atoms: _282  and  _285
REMARK  124  A    between atoms: _285  and  _286
REMARK  125  A    between atoms: _296  and  _298
REMARK  126  A    between atoms: _298  and  _299
REMARK  127  A    between atoms: _298  and  _301
REMARK  128  A    between atoms: _301  and  _302
REMARK  129  A    between atoms: _306  and  ZN_316
REMARK  130  A    between atoms: _307  and  _309
REMARK  131  A    between atoms: _309  and  _310
REMARK  132  A    between atoms: _309  and  _312
REMARK  133  A    between atoms: _312  and  _313
REMARK                            x       y       z     vdW  Elec       q    Type
REMARK                         _______ _______ _______ _____ _____    ______ ____
ROOT
ATOM      1  CA  ILE A   1     -15.042  -3.229  15.924  0.00  0.00    +0.133 C 
ENDROOT
BRANCH   1   2
ATOM      2  N   ILE A   1     -14.939  -4.708  15.913  0.00  0.00    -0.239 NA
ATOM      3  H   ILE A   1     -13.996  -5.143  15.850  0.00  0.00    +0.142 HD
ENDBRANCH   1   2
BRANCH   1   4
ATOM      4  CB  ILE A   1     -14.403  -2.595  17.181  0.00  0.00    +0.023 C 
ATOM      5  CG2 ILE A   1     -12.878  -2.820  17.223  0.00  0.00    +0.002 C 
BRANCH   4   6
ATOM      6  CG1 ILE A   1     -14.753  -1.087  17.242  0.00  0.00    +0.002 C 
ATOM      7  CD1 ILE A   1     -14.334  -0.453  18.646  0.00  0.00    +0.000 C 
ENDBRANCH   4   6
ENDBRANCH   1   4
BRANCH   1   8
ATOM      8  C   ILE A   1     -14.321  -2.791  14.663  0.00  0.00    +0.224 C 
ATOM      9  O   ILE A   1     -13.263  -3.325  14.325  0.00  0.00    -0.287 OA
ENDBRANCH   1   8
TORSDOF 4
REMARK  Name = ../refined-set-2016/2afw/2afw_pocket.pdb
REMARK  133 active torsions:
REMARK  status: ('A' for Active; 'I' for Inactive)
REMARK    1  A    between atoms: _1  and  _3
REMARK    2  A    between atoms: _3  and  _4
REMARK    3  A    between atoms: _3  and  _6
REMARK    4  A    between atoms: _6  and  _7
REMARK    5  A    between atoms: _12  and  _14
REMARK    6  A    between atoms: _14  and  _15
REMARK    7  A    between atoms: _14  and  _17
REMARK    8  A    between atoms: _17  and  _18
REMARK    9  A    between atoms: _21  and  _23
REMARK   10  A    between atoms: _23  and  _24
REMARK   11  A    between atoms: _23  and  _26
REMARK   12  A    between atoms: _26  and  _27
REMARK   13  A    between atoms: _27  and  _28
REMARK   14  A    between atoms: _28  and  _29
REMARK   15  A    between atoms: _29  and  _30
REMARK   16  A    between atoms: _34  and  _36
REMARK   17  A    between atoms: _36  and  _37
REMARK   18  A    between atoms: _36  and  _39
REMARK   19  A    between atoms: _39  and  _40
REMARK   20  A    between atoms: _46  and  _48
REMARK   21  A    between atoms: _48  and  _49
REMARK   22  A    between atoms: _48  and  _51
REMARK   23  A    between atoms: _51  and  _52
REMARK   24  A    between atoms: _55  and  _57
REMARK   25  A    between atoms: _57  and  _58
REMARK   26  A    between atoms: _57  and  _60
REMARK   27  A    between atoms: _60  and  _61
REMARK   28  A    between atoms: _61  and  _63
REMARK   29  A    between atoms: _63  and  ZN_316
REMARK   30  A    between atoms: _64  and  _66
REMARK   31  A    between atoms: _66  and  _67
REMARK   32  A    between atoms: _66  and  _69
REMARK   33  A    between atoms: _69  and  _70
REMARK   34  A    between atoms: _72  and  _74
REMARK   35  A    between atoms: _74  and  _75
REMARK   36  A    between atoms: _74  and  _77
REMARK   37  A    between atoms: _77  and  _78
REMARK   38  A    between atoms: _78  and  _79
REMARK   39  A    between atoms: _82  and  _84
REMARK   40  A    between atoms: _84  and  _85
REMARK   41  A    between atoms: _84  and  _87
REMARK   42  A    between atoms: _87  and  _88
REMARK   43  A    between atoms: _88  and  _89
REMARK   44  A    between atoms: _89  and  _91
REMARK   45  A    between atoms: _91  and  ZN_316
REMARK   46  A    between atoms: _92  and  _94
REMARK   47  A    between atoms: _94  and  _95
REMARK   48  A    between atoms: _98  and  _100
REMARK   49  A    between atoms: _100  and  _101
REMARK   50  A    between atoms: _100  and  _103
REMARK   51  A    between atoms: _103  and  _104
REMARK   52  A    between atoms: _114  and  _116
REMARK   53  A    between atoms: _116  and  _117
REMARK   54  A    between atoms: _116  and  _119
REMARK   55  A    between atoms: _119  and  _120
REMARK   56  A    between atoms: _122  and  _124
REMARK   57  A    between atoms: _124  and  _125
REMARK   58  A    between atoms: _124  and  _127
REMARK   59  A    between atoms: _127  and  _128
REMARK   60  A    between atoms: _131  and  _133
REMARK   61  A    between atoms: _133  and  _134
REMARK   62  A    between atoms: _133  and  _136
REMARK   63  A    between atoms: _136  and  _137
REMARK   64  A    between atoms: _140  and  _142
REMARK   65  A    between atoms: _142  and  _143
REMARK   66  A    between atoms: _142  and  _145
REMARK   67  A    between atoms: _145  and  _146
REMARK   68  A    between atoms: _149  and  _151
REMARK   69  A    between atoms: _151  and  _152
REMARK   70  A    between atoms: _151  and  _154
REMARK   71  A    between atoms: _154  and  _155
REMARK   72  A    between atoms: _158  and  _160
REMARK   73  A    between atoms: _160  and  _161
REMARK   74  A    between atoms: _160  and  _163
REMARK   75  A    between atoms: _163  and  _164
REMARK   76  A    between atoms: _167  and  _169
REMARK   77  A    between atoms: _169  and  _170
REMARK   78  A    between atoms: _169  and  _172
REMARK   79  A    between atoms: _172  and  _173
REMARK   80  A    between atoms: _178  and  _179
REMARK   81  A    between atoms: _181  and  _183
REMARK   82  A    between atoms: _183  and  _184
REMARK   83  A    between atoms: _183  and  _186
REMARK   84  A    between atoms: _189  and  _191
REMARK   85  A    between atoms: _191  and  _192
REMARK   86  A    between atoms: _191  and  _194
REMARK   87  A    between atoms: _194  and  _195
REMARK   88  A    between atoms: _198  and  _200
REMARK   89  A    between atoms: _200  and  _201
REMARK   90  A    between atoms: _200  and  _203
REMARK   91  A    between atoms: _203  and  _204
REMARK   92  A    between atoms: _204  and  _205
REMARK   93  A    between atoms: _210  and  _212
REMARK   94  A    between atoms: _212  and  _213
REMARK   95  A    between atoms: _212  and  _215
REMARK   96  A    between atoms: _215  and  _216
REMARK   97  A    between atoms: _219  and  _221
REMARK   98  A    between atoms: _221  and  _222
REMARK   99  A    between atoms: _221  and  _224
REMARK  100  A    between atoms: _224  and  _225
REMARK  101  A    between atoms: _228  and  _230
REMARK  102  A    between atoms: _230  and  _231
REMARK  103  A    between atoms: _230  and  _233
REMARK  104  A    between atoms: _233  and  _234
REMARK  105  A    between atoms: _239  and  _241
REMARK  106  A    between atoms: _241  and  _242
REMARK  107  A    between atoms: _241  and  _244
REMARK  108  A    between atoms: _244  and  _245
REMARK  109  A    between atoms: _248  and  _250
REMARK  110  A    between atoms: _250  and  _251
REMARK  111  A    between atoms: _250  and  _253
REMARK  112  A    between atoms: _253  and  _254
REMARK  113  A    between atoms: _259  and  _261
REMARK  114  A    between atoms: _261  and  _262
REMARK  115  A    between atoms: _261  and  _264
REMARK  116  A    between atoms: _264  and  _265
REMARK  117  A    between atoms: _268  and  _270
REMARK  118  A    between atoms: _270  and  _271
REMARK  119  A    between atoms: _270  and  _273
REMARK  120  A    between atoms: _273  and  _274
REMARK  121  A    between atoms: _280  and  _282
REMARK  122  A    between atoms: _282  and  _283
REMARK  123  A    between atoms: _282  and  _285
REMARK  124  A    between atoms: _285  and  _286
REMARK  125  A    between atoms: _296  and  _298
REMARK  126  A    between atoms: _298  and  _299
REMARK  127  A    between atoms: _298  and  _301
REMARK  128  A    between atoms: _301  and  _302
REMARK  129  A    between atoms: _306  and  ZN_316
REMARK  130  A    between atoms: _307  and  _309
REMARK  131  A    between atoms: _309  and  _310
REMARK  132  A    between atoms: _309  and  _312
REMARK  133  A    between atoms: _312  and  _313
REMARK                            x       y       z     vdW  Elec       q    Type
REMARK                         _______ _______ _______ _____ _____    ______ ____
ROOT
ATOM      1  CB  PHE A   1     -14.638   4.895  14.822  0.00  0.00    +0.051 C 
ENDROOT
BRANCH   1   2
ATOM      2  CG  PHE A   1     -13.790   4.309  15.933  0.00  0.00    -0.020 A 
ATOM      3  CD2 PHE A   1     -13.564   5.062  17.096  0.00  0.00    -0.004 A 
ATOM      4  CE2 PHE A   1     -12.874   4.519  18.184  0.00  0.00    -0.000 A 
ATOM      5  CZ  PHE A   1     -12.397   3.183  18.096  0.00  0.00    -0.000 A 
ATOM      6  CE1 PHE A   1     -12.616   2.441  16.932  0.00  0.00    -0.000 A 
ATOM      7  CD1 PHE A   1     -13.304   2.995  15.860  0.00  0.00    -0.004 A 
ENDBRANCH   1   2
BRANCH   1   8
ATOM      8  CA  PHE A   1     -14.621   4.101  13.516  0.00  0.00    +0.137 C 
BRANCH   8   9
ATOM      9  N   PHE A   1     -13.282   4.079  12.935  0.00  0.00    -0.239 NA
ATOM     10  H   PHE A   1     -12.528   4.660  13.355  0.00  0.00    +0.142 HD
ENDBRANCH   8   9
BRANCH   8  11
ATOM     11  C   PHE A   1     -15.570   4.845  12.551  0.00  0.00    +0.224 C 
ATOM     12  O   PHE A   1     -15.132   5.567  11.646  0.00  0.00    -0.287 OA
ENDBRANCH   8  11
ENDBRANCH   1   8
TORSDOF 4
REMARK  Name = ../refined-set-2016/2afw/2afw_pocket.pdb
REMARK  133 active torsions:
REMARK  status: ('A' for Active; 'I' for Inactive)
REMARK    1  A    between atoms: _1  and  _3
REMARK    2  A    between atoms: _3  and  _4
REMARK    3  A    between atoms: _3  and  _6
REMARK    4  A    between atoms: _6  and  _7
REMARK    5  A    between atoms: _12  and  _14
REMARK    6  A    between atoms: _14  and  _15
REMARK    7  A    between atoms: _14  and  _17
REMARK    8  A    between atoms: _17  and  _18
REMARK    9  A    between atoms: _21  and  _23
REMARK   10  A    between atoms: _23  and  _24
REMARK   11  A    between atoms: _23  and  _26
REMARK   12  A    between atoms: _26  and  _27
REMARK   13  A    between atoms: _27  and  _28
REMARK   14  A    between atoms: _28  and  _29
REMARK   15  A    between atoms: _29  and  _30
REMARK   16  A    between atoms: _34  and  _36
REMARK   17  A    between atoms: _36  and  _37
REMARK   18  A    between atoms: _36  and  _39
REMARK   19  A    between atoms: _39  and  _40
REMARK   20  A    between atoms: _46  and  _48
REMARK   21  A    between atoms: _48  and  _49
REMARK   22  A    between atoms: _48  and  _51
REMARK   23  A    between atoms: _51  and  _52
REMARK   24  A    between atoms: _55  and  _57
REMARK   25  A    between atoms: _57  and  _58
REMARK   26  A    between atoms: _57  and  _60
REMARK   27  A    between atoms: _60  and  _61
REMARK   28  A    between atoms: _61  and  _63
REMARK   29  A    between atoms: _63  and  ZN_316
REMARK   30  A    between atoms: _64  and  _66
REMARK   31  A    between atoms: _66  and  _67
REMARK   32  A    between atoms: _66  and  _69
REMARK   33  A    between atoms: _69  and  _70
REMARK   34  A    between atoms: _72  and  _74
REMARK   35  A    between atoms: _74  and  _75
REMARK   36  A    between atoms: _74  and  _77
REMARK   37  A    between atoms: _77  and  _78
REMARK   38  A    between atoms: _78  and  _79
REMARK   39  A    between atoms: _82  and  _84
REMARK   40  A    between atoms: _84  and  _85
REMARK   41  A    between atoms: _84  and  _87
REMARK   42  A    between atoms: _87  and  _88
REMARK   43  A    between atoms: _88  and  _89
REMARK   44  A    between atoms: _89  and  _91
REMARK   45  A    between atoms: _91  and  ZN_316
REMARK   46  A    between atoms: _92  and  _94
REMARK   47  A    between atoms: _94  and  _95
REMARK   48  A    between atoms: _98  and  _100
REMARK   49  A    between atoms: _100  and  _101
REMARK   50  A    between atoms: _100  and  _103
REMARK   51  A    between atoms: _103  and  _104
REMARK   52  A    between atoms: _114  and  _116
REMARK   53  A    between atoms: _116  and  _117
REMARK   54  A    between atoms: _116  and  _119
REMARK   55  A    between atoms: _119  and  _120
REMARK   56  A    between atoms: _122  and  _124
REMARK   57  A    between atoms: _124  and  _125
REMARK   58  A    between atoms: _124  and  _127
REMARK   59  A    between atoms: _127  and  _128
REMARK   60  A    between atoms: _131  and  _133
REMARK   61  A    between atoms: _133  and  _134
REMARK   62  A    between atoms: _133  and  _136
REMARK   63  A    between atoms: _136  and  _137
REMARK   64  A    between atoms: _140  and  _142
REMARK   65  A    between atoms: _142  and  _143
REMARK   66  A    between atoms: _142  and  _145
REMARK   67  A    between atoms: _145  and  _146
REMARK   68  A    between atoms: _149  and  _151
REMARK   69  A    between atoms: _151  and  _152
REMARK   70  A    between atoms: _151  and  _154
REMARK   71  A    between atoms: _154  and  _155
REMARK   72  A    between atoms: _158  and  _160
REMARK   73  A    between atoms: _160  and  _161
REMARK   74  A    between atoms: _160  and  _163
REMARK   75  A    between atoms: _163  and  _164
REMARK   76  A    between atoms: _167  and  _169
REMARK   77  A    between atoms: _169  and  _170
REMARK   78  A    between atoms: _169  and  _172
REMARK   79  A    between atoms: _172  and  _173
REMARK   80  A    between atoms: _178  and  _179
REMARK   81  A    between atoms: _181  and  _183
REMARK   82  A    between atoms: _183  and  _184
REMARK   83  A    between atoms: _183  and  _186
REMARK   84  A    between atoms: _189  and  _191
REMARK   85  A    between atoms: _191  and  _192
REMARK   86  A    between atoms: _191  and  _194
REMARK   87  A    between atoms: _194  and  _195
REMARK   88  A    between atoms: _198  and  _200
REMARK   89  A    between atoms: _200  and  _201
REMARK   90  A    between atoms: _200  and  _203
REMARK   91  A    between atoms: _203  and  _204
REMARK   92  A    between atoms: _204  and  _205
REMARK   93  A    between atoms: _210  and  _212
REMARK   94  A    between atoms: _212  and  _213
REMARK   95  A    between atoms: _212  and  _215
REMARK   96  A    between atoms: _215  and  _216
REMARK   97  A    between atoms: _219  and  _221
REMARK   98  A    between atoms: _221  and  _222
REMARK   99  A    between atoms: _221  and  _224
REMARK  100  A    between atoms: _224  and  _225
REMARK  101  A    between atoms: _228  and  _230
REMARK  102  A    between atoms: _230  and  _231
REMARK  103  A    between atoms: _230  and  _233
REMARK  104  A    between atoms: _233  and  _234
REMARK  105  A    between atoms: _239  and  _241
REMARK  106  A    between atoms: _241  and  _242
REMARK  107  A    between atoms: _241  and  _244
REMARK  108  A    between atoms: _244  and  _245
REMARK  109  A    between atoms: _248  and  _250
REMARK  110  A    between atoms: _250  and  _251
REMARK  111  A    between atoms: _250  and  _253
REMARK  112  A    between atoms: _253  and  _254
REMARK  113  A    between atoms: _259  and  _261
REMARK  114  A    between atoms: _261  and  _262
REMARK  115  A    between atoms: _261  and  _264
REMARK  116  A    between atoms: _264  and  _265
REMARK  117  A    between atoms: _268  and  _270
REMARK  118  A    between atoms: _270  and  _271
REMARK  119  A    between atoms: _270  and  _273
REMARK  120  A    between atoms: _273  and  _274
REMARK  121  A    between atoms: _280  and  _282
REMARK  122  A    between atoms: _282  and  _283
REMARK  123  A    between atoms: _282  and  _285
REMARK  124  A    between atoms: _285  and  _286
REMARK  125  A    between atoms: _296  and  _298
REMARK  126  A    between atoms: _298  and  _299
REMARK  127  A    between atoms: _298  and  _301
REMARK  128  A    between atoms: _301  and  _302
REMARK  129  A    between atoms: _306  and  ZN_316
REMARK  130  A    between atoms: _307  and  _309
REMARK  131  A    between atoms: _309  and  _310
REMARK  132  A    between atoms: _309  and  _312
REMARK  133  A    between atoms: _312  and  _313
REMARK                            x       y       z     vdW  Elec       q    Type
REMARK                         _______ _______ _______ _____ _____    ______ ____
ROOT
ATOM      1  CA  ASP A   1     -24.825   8.570  15.183  0.00  0.00    +0.144 C 
ENDROOT
BRANCH   1   2
ATOM      2  N   ASP A   1     -24.868  10.047  15.106  0.00  0.00    -0.239 NA
ATOM      3  H   ASP A   1     -24.600  10.628  15.926  0.00  0.00    +0.142 HD
ENDBRANCH   1   2
BRANCH   1   4
ATOM      4  C   ASP A   1     -26.251   8.159  15.478  0.00  0.00    +0.225 C 
ATOM      5  O   ASP A   1     -26.615   7.816  16.616  0.00  0.00    -0.287 OA
ENDBRANCH   1   4
BRANCH   1   6
ATOM      6  CB  ASP A   1     -23.908   8.092  16.301  0.00  0.00    +0.139 C 
BRANCH   6   7
ATOM      7  CG  ASP A   1     -23.775   6.571  16.299  0.00  0.00    +0.367 C 
ATOM      8  OD2 ASP A   1     -23.127   6.051  17.228  0.00  0.00    -0.246 OA
ATOM      9  OD1 ASP A   1     -24.320   5.954  15.358  0.00  0.00    -0.246 OA
ENDBRANCH   6   7
ENDBRANCH   1   6
TORSDOF 4
REMARK  Name = ../refined-set-2016/2afw/2afw_pocket.pdb
REMARK  133 active torsions:
REMARK  status: ('A' for Active; 'I' for Inactive)
REMARK    1  A    between atoms: _1  and  _3
REMARK    2  A    between atoms: _3  and  _4
REMARK    3  A    between atoms: _3  and  _6
REMARK    4  A    between atoms: _6  and  _7
REMARK    5  A    between atoms: _12  and  _14
REMARK    6  A    between atoms: _14  and  _15
REMARK    7  A    between atoms: _14  and  _17
REMARK    8  A    between atoms: _17  and  _18
REMARK    9  A    between atoms: _21  and  _23
REMARK   10  A    between atoms: _23  and  _24
REMARK   11  A    between atoms: _23  and  _26
REMARK   12  A    between atoms: _26  and  _27
REMARK   13  A    between atoms: _27  and  _28
REMARK   14  A    between atoms: _28  and  _29
REMARK   15  A    between atoms: _29  and  _30
REMARK   16  A    between atoms: _34  and  _36
REMARK   17  A    between atoms: _36  and  _37
REMARK   18  A    between atoms: _36  and  _39
REMARK   19  A    between atoms: _39  and  _40
REMARK   20  A    between atoms: _46  and  _48
REMARK   21  A    between atoms: _48  and  _49
REMARK   22  A    between atoms: _48  and  _51
REMARK   23  A    between atoms: _51  and  _52
REMARK   24  A    between atoms: _55  and  _57
REMARK   25  A    between atoms: _57  and  _58
REMARK   26  A    between atoms: _57  and  _60
REMARK   27  A    between atoms: _60  and  _61
REMARK   28  A    between atoms: _61  and  _63
REMARK   29  A    between atoms: _63  and  ZN_316
REMARK   30  A    between atoms: _64  and  _66
REMARK   31  A    between atoms: _66  and  _67
REMARK   32  A    between atoms: _66  and  _69
REMARK   33  A    between atoms: _69  and  _70
REMARK   34  A    between atoms: _72  and  _74
REMARK   35  A    between atoms: _74  and  _75
REMARK   36  A    between atoms: _74  and  _77
REMARK   37  A    between atoms: _77  and  _78
REMARK   38  A    between atoms: _78  and  _79
REMARK   39  A    between atoms: _82  and  _84
REMARK   40  A    between atoms: _84  and  _85
REMARK   41  A    between atoms: _84  and  _87
REMARK   42  A    between atoms: _87  and  _88
REMARK   43  A    between atoms: _88  and  _89
REMARK   44  A    between atoms: _89  and  _91
REMARK   45  A    between atoms: _91  and  ZN_316
REMARK   46  A    between atoms: _92  and  _94
REMARK   47  A    between atoms: _94  and  _95
REMARK   48  A    between atoms: _98  and  _100
REMARK   49  A    between atoms: _100  and  _101
REMARK   50  A    between atoms: _100  and  _103
REMARK   51  A    between atoms: _103  and  _104
REMARK   52  A    between atoms: _114  and  _116
REMARK   53  A    between atoms: _116  and  _117
REMARK   54  A    between atoms: _116  and  _119
REMARK   55  A    between atoms: _119  and  _120
REMARK   56  A    between atoms: _122  and  _124
REMARK   57  A    between atoms: _124  and  _125
REMARK   58  A    between atoms: _124  and  _127
REMARK   59  A    between atoms: _127  and  _128
REMARK   60  A    between atoms: _131  and  _133
REMARK   61  A    between atoms: _133  and  _134
REMARK   62  A    between atoms: _133  and  _136
REMARK   63  A    between atoms: _136  and  _137
REMARK   64  A    between atoms: _140  and  _142
REMARK   65  A    between atoms: _142  and  _143
REMARK   66  A    between atoms: _142  and  _145
REMARK   67  A    between atoms: _145  and  _146
REMARK   68  A    between atoms: _149  and  _151
REMARK   69  A    between atoms: _151  and  _152
REMARK   70  A    between atoms: _151  and  _154
REMARK   71  A    between atoms: _154  and  _155
REMARK   72  A    between atoms: _158  and  _160
REMARK   73  A    between atoms: _160  and  _161
REMARK   74  A    between atoms: _160  and  _163
REMARK   75  A    between atoms: _163  and  _164
REMARK   76  A    between atoms: _167  and  _169
REMARK   77  A    between atoms: _169  and  _170
REMARK   78  A    between atoms: _169  and  _172
REMARK   79  A    between atoms: _172  and  _173
REMARK   80  A    between atoms: _178  and  _179
REMARK   81  A    between atoms: _181  and  _183
REMARK   82  A    between atoms: _183  and  _184
REMARK   83  A    between atoms: _183  and  _186
REMARK   84  A    between atoms: _189  and  _191
REMARK   85  A    between atoms: _191  and  _192
REMARK   86  A    between atoms: _191  and  _194
REMARK   87  A    between atoms: _194  and  _195
REMARK   88  A    between atoms: _198  and  _200
REMARK   89  A    between atoms: _200  and  _201
REMARK   90  A    between atoms: _200  and  _203
REMARK   91  A    between atoms: _203  and  _204
REMARK   92  A    between atoms: _204  and  _205
REMARK   93  A    between atoms: _210  and  _212
REMARK   94  A    between atoms: _212  and  _213
REMARK   95  A    between atoms: _212  and  _215
REMARK   96  A    between atoms: _215  and  _216
REMARK   97  A    between atoms: _219  and  _221
REMARK   98  A    between atoms: _221  and  _222
REMARK   99  A    between atoms: _221  and  _224
REMARK  100  A    between atoms: _224  and  _225
REMARK  101  A    between atoms: _228  and  _230
REMARK  102  A    between atoms: _230  and  _231
REMARK  103  A    between atoms: _230  and  _233
REMARK  104  A    between atoms: _233  and  _234
REMARK  105  A    between atoms: _239  and  _241
REMARK  106  A    between atoms: _241  and  _242
REMARK  107  A    between atoms: _241  and  _244
REMARK  108  A    between atoms: _244  and  _245
REMARK  109  A    between atoms: _248  and  _250
REMARK  110  A    between atoms: _250  and  _251
REMARK  111  A    between atoms: _250  and  _253
REMARK  112  A    between atoms: _253  and  _254
REMARK  113  A    between atoms: _259  and  _261
REMARK  114  A    between atoms: _261  and  _262
REMARK  115  A    between atoms: _261  and  _264
REMARK  116  A    between atoms: _264  and  _265
REMARK  117  A    between atoms: _268  and  _270
REMARK  118  A    between atoms: _270  and  _271
REMARK  119  A    between atoms: _270  and  _273
REMARK  120  A    between atoms: _273  and  _274
REMARK  121  A    between atoms: _280  and  _282
REMARK  122  A    between atoms: _282  and  _283
REMARK  123  A    between atoms: _282  and  _285
REMARK  124  A    between atoms: _285  and  _286
REMARK  125  A    between atoms: _296  and  _298
REMARK  126  A    between atoms: _298  and  _299
REMARK  127  A    between atoms: _298  and  _301
REMARK  128  A    between atoms: _301  and  _302
REMARK  129  A    between atoms: _306  and  ZN_316
REMARK  130  A    between atoms: _307  and  _309
REMARK  131  A    between atoms: _309  and  _310
REMARK  132  A    between atoms: _309  and  _312
REMARK  133  A    between atoms: _312  and  _313
REMARK                            x       y       z     vdW  Elec       q    Type
REMARK                         _______ _______ _______ _____ _____    ______ ____
ROOT
ATOM      1  O   HOH     1     -20.806   6.749  18.354  0.00  0.00    +0.000 OA
ENDROOT
TORSDOF 0
REMARK  Name = ../refined-set-2016/2afw/2afw_pocket.pdb
REMARK  133 active torsions:
REMARK  status: ('A' for Active; 'I' for Inactive)
REMARK    1  A    between atoms: _1  and  _3
REMARK    2  A    between atoms: _3  and  _4
REMARK    3  A    between atoms: _3  and  _6
REMARK    4  A    between atoms: _6  and  _7
REMARK    5  A    between atoms: _12  and  _14
REMARK    6  A    between atoms: _14  and  _15
REMARK    7  A    between atoms: _14  and  _17
REMARK    8  A    between atoms: _17  and  _18
REMARK    9  A    between atoms: _21  and  _23
REMARK   10  A    between atoms: _23  and  _24
REMARK   11  A    between atoms: _23  and  _26
REMARK   12  A    between atoms: _26  and  _27
REMARK   13  A    between atoms: _27  and  _28
REMARK   14  A    between atoms: _28  and  _29
REMARK   15  A    between atoms: _29  and  _30
REMARK   16  A    between atoms: _34  and  _36
REMARK   17  A    between atoms: _36  and  _37
REMARK   18  A    between atoms: _36  and  _39
REMARK   19  A    between atoms: _39  and  _40
REMARK   20  A    between atoms: _46  and  _48
REMARK   21  A    between atoms: _48  and  _49
REMARK   22  A    between atoms: _48  and  _51
REMARK   23  A    between atoms: _51  and  _52
REMARK   24  A    between atoms: _55  and  _57
REMARK   25  A    between atoms: _57  and  _58
REMARK   26  A    between atoms: _57  and  _60
REMARK   27  A    between atoms: _60  and  _61
REMARK   28  A    between atoms: _61  and  _63
REMARK   29  A    between atoms: _63  and  ZN_316
REMARK   30  A    between atoms: _64  and  _66
REMARK   31  A    between atoms: _66  and  _67
REMARK   32  A    between atoms: _66  and  _69
REMARK   33  A    between atoms: _69  and  _70
REMARK   34  A    between atoms: _72  and  _74
REMARK   35  A    between atoms: _74  and  _75
REMARK   36  A    between atoms: _74  and  _77
REMARK   37  A    between atoms: _77  and  _78
REMARK   38  A    between atoms: _78  and  _79
REMARK   39  A    between atoms: _82  and  _84
REMARK   40  A    between atoms: _84  and  _85
REMARK   41  A    between atoms: _84  and  _87
REMARK   42  A    between atoms: _87  and  _88
REMARK   43  A    between atoms: _88  and  _89
REMARK   44  A    between atoms: _89  and  _91
REMARK   45  A    between atoms: _91  and  ZN_316
REMARK   46  A    between atoms: _92  and  _94
REMARK   47  A    between atoms: _94  and  _95
REMARK   48  A    between atoms: _98  and  _100
REMARK   49  A    between atoms: _100  and  _101
REMARK   50  A    between atoms: _100  and  _103
REMARK   51  A    between atoms: _103  and  _104
REMARK   52  A    between atoms: _114  and  _116
REMARK   53  A    between atoms: _116  and  _117
REMARK   54  A    between atoms: _116  and  _119
REMARK   55  A    between atoms: _119  and  _120
REMARK   56  A    between atoms: _122  and  _124
REMARK   57  A    between atoms: _124  and  _125
REMARK   58  A    between atoms: _124  and  _127
REMARK   59  A    between atoms: _127  and  _128
REMARK   60  A    between atoms: _131  and  _133
REMARK   61  A    between atoms: _133  and  _134
REMARK   62  A    between atoms: _133  and  _136
REMARK   63  A    between atoms: _136  and  _137
REMARK   64  A    between atoms: _140  and  _142
REMARK   65  A    between atoms: _142  and  _143
REMARK   66  A    between atoms: _142  and  _145
REMARK   67  A    between atoms: _145  and  _146
REMARK   68  A    between atoms: _149  and  _151
REMARK   69  A    between atoms: _151  and  _152
REMARK   70  A    between atoms: _151  and  _154
REMARK   71  A    between atoms: _154  and  _155
REMARK   72  A    between atoms: _158  and  _160
REMARK   73  A    between atoms: _160  and  _161
REMARK   74  A    between atoms: _160  and  _163
REMARK   75  A    between atoms: _163  and  _164
REMARK   76  A    between atoms: _167  and  _169
REMARK   77  A    between atoms: _169  and  _170
REMARK   78  A    between atoms: _169  and  _172
REMARK   79  A    between atoms: _172  and  _173
REMARK   80  A    between atoms: _178  and  _179
REMARK   81  A    between atoms: _181  and  _183
REMARK   82  A    between atoms: _183  and  _184
REMARK   83  A    between atoms: _183  and  _186
REMARK   84  A    between atoms: _189  and  _191
REMARK   85  A    between atoms: _191  and  _192
REMARK   86  A    between atoms: _191  and  _194
REMARK   87  A    between atoms: _194  and  _195
REMARK   88  A    between atoms: _198  and  _200
REMARK   89  A    between atoms: _200  and  _201
REMARK   90  A    between atoms: _200  and  _203
REMARK   91  A    between atoms: _203  and  _204
REMARK   92  A    between atoms: _204  and  _205
REMARK   93  A    between atoms: _210  and  _212
REMARK   94  A    between atoms: _212  and  _213
REMARK   95  A    between atoms: _212  and  _215
REMARK   96  A    between atoms: _215  and  _216
REMARK   97  A    between atoms: _219  and  _221
REMARK   98  A    between atoms: _221  and  _222
REMARK   99  A    between atoms: _221  and  _224
REMARK  100  A    between atoms: _224  and  _225
REMARK  101  A    between atoms: _228  and  _230
REMARK  102  A    between atoms: _230  and  _231
REMARK  103  A    between atoms: _230  and  _233
REMARK  104  A    between atoms: _233  and  _234
REMARK  105  A    between atoms: _239  and  _241
REMARK  106  A    between atoms: _241  and  _242
REMARK  107  A    between atoms: _241  and  _244
REMARK  108  A    between atoms: _244  and  _245
REMARK  109  A    between atoms: _248  and  _250
REMARK  110  A    between atoms: _250  and  _251
REMARK  111  A    between atoms: _250  and  _253
REMARK  112  A    between atoms: _253  and  _254
REMARK  113  A    between atoms: _259  and  _261
REMARK  114  A    between atoms: _261  and  _262
REMARK  115  A    between atoms: _261  and  _264
REMARK  116  A    between atoms: _264  and  _265
REMARK  117  A    between atoms: _268  and  _270
REMARK  118  A    between atoms: _270  and  _271
REMARK  119  A    between atoms: _270  and  _273
REMARK  120  A    between atoms: _273  and  _274
REMARK  121  A    between atoms: _280  and  _282
REMARK  122  A    between atoms: _282  and  _283
REMARK  123  A    between atoms: _282  and  _285
REMARK  124  A    between atoms: _285  and  _286
REMARK  125  A    between atoms: _296  and  _298
REMARK  126  A    between atoms: _298  and  _299
REMARK  127  A    between atoms: _298  and  _301
REMARK  128  A    between atoms: _301  and  _302
REMARK  129  A    between atoms: _306  and  ZN_316
REMARK  130  A    between atoms: _307  and  _309
REMARK  131  A    between atoms: _309  and  _310
REMARK  132  A    between atoms: _309  and  _312
REMARK  133  A    between atoms: _312  and  _313
REMARK                            x       y       z     vdW  Elec       q    Type
REMARK                         _______ _______ _______ _____ _____    ______ ____
ROOT
ATOM      1  O   HOH     1     -19.669   5.226  16.079  0.00  0.00    +0.000 OA
ENDROOT
TORSDOF 0
REMARK  Name = ../refined-set-2016/2afw/2afw_pocket.pdb
REMARK  133 active torsions:
REMARK  status: ('A' for Active; 'I' for Inactive)
REMARK    1  A    between atoms: _1  and  _3
REMARK    2  A    between atoms: _3  and  _4
REMARK    3  A    between atoms: _3  and  _6
REMARK    4  A    between atoms: _6  and  _7
REMARK    5  A    between atoms: _12  and  _14
REMARK    6  A    between atoms: _14  and  _15
REMARK    7  A    between atoms: _14  and  _17
REMARK    8  A    between atoms: _17  and  _18
REMARK    9  A    between atoms: _21  and  _23
REMARK   10  A    between atoms: _23  and  _24
REMARK   11  A    between atoms: _23  and  _26
REMARK   12  A    between atoms: _26  and  _27
REMARK   13  A    between atoms: _27  and  _28
REMARK   14  A    between atoms: _28  and  _29
REMARK   15  A    between atoms: _29  and  _30
REMARK   16  A    between atoms: _34  and  _36
REMARK   17  A    between atoms: _36  and  _37
REMARK   18  A    between atoms: _36  and  _39
REMARK   19  A    between atoms: _39  and  _40
REMARK   20  A    between atoms: _46  and  _48
REMARK   21  A    between atoms: _48  and  _49
REMARK   22  A    between atoms: _48  and  _51
REMARK   23  A    between atoms: _51  and  _52
REMARK   24  A    between atoms: _55  and  _57
REMARK   25  A    between atoms: _57  and  _58
REMARK   26  A    between atoms: _57  and  _60
REMARK   27  A    between atoms: _60  and  _61
REMARK   28  A    between atoms: _61  and  _63
REMARK   29  A    between atoms: _63  and  ZN_316
REMARK   30  A    between atoms: _64  and  _66
REMARK   31  A    between atoms: _66  and  _67
REMARK   32  A    between atoms: _66  and  _69
REMARK   33  A    between atoms: _69  and  _70
REMARK   34  A    between atoms: _72  and  _74
REMARK   35  A    between atoms: _74  and  _75
REMARK   36  A    between atoms: _74  and  _77
REMARK   37  A    between atoms: _77  and  _78
REMARK   38  A    between atoms: _78  and  _79
REMARK   39  A    between atoms: _82  and  _84
REMARK   40  A    between atoms: _84  and  _85
REMARK   41  A    between atoms: _84  and  _87
REMARK   42  A    between atoms: _87  and  _88
REMARK   43  A    between atoms: _88  and  _89
REMARK   44  A    between atoms: _89  and  _91
REMARK   45  A    between atoms: _91  and  ZN_316
REMARK   46  A    between atoms: _92  and  _94
REMARK   47  A    between atoms: _94  and  _95
REMARK   48  A    between atoms: _98  and  _100
REMARK   49  A    between atoms: _100  and  _101
REMARK   50  A    between atoms: _100  and  _103
REMARK   51  A    between atoms: _103  and  _104
REMARK   52  A    between atoms: _114  and  _116
REMARK   53  A    between atoms: _116  and  _117
REMARK   54  A    between atoms: _116  and  _119
REMARK   55  A    between atoms: _119  and  _120
REMARK   56  A    between atoms: _122  and  _124
REMARK   57  A    between atoms: _124  and  _125
REMARK   58  A    between atoms: _124  and  _127
REMARK   59  A    between atoms: _127  and  _128
REMARK   60  A    between atoms: _131  and  _133
REMARK   61  A    between atoms: _133  and  _134
REMARK   62  A    between atoms: _133  and  _136
REMARK   63  A    between atoms: _136  and  _137
REMARK   64  A    between atoms: _140  and  _142
REMARK   65  A    between atoms: _142  and  _143
REMARK   66  A    between atoms: _142  and  _145
REMARK   67  A    between atoms: _145  and  _146
REMARK   68  A    between atoms: _149  and  _151
REMARK   69  A    between atoms: _151  and  _152
REMARK   70  A    between atoms: _151  and  _154
REMARK   71  A    between atoms: _154  and  _155
REMARK   72  A    between atoms: _158  and  _160
REMARK   73  A    between atoms: _160  and  _161
REMARK   74  A    between atoms: _160  and  _163
REMARK   75  A    between atoms: _163  and  _164
REMARK   76  A    between atoms: _167  and  _169
REMARK   77  A    between atoms: _169  and  _170
REMARK   78  A    between atoms: _169  and  _172
REMARK   79  A    between atoms: _172  and  _173
REMARK   80  A    between atoms: _178  and  _179
REMARK   81  A    between atoms: _181  and  _183
REMARK   82  A    between atoms: _183  and  _184
REMARK   83  A    between atoms: _183  and  _186
REMARK   84  A    between atoms: _189  and  _191
REMARK   85  A    between atoms: _191  and  _192
REMARK   86  A    between atoms: _191  and  _194
REMARK   87  A    between atoms: _194  and  _195
REMARK   88  A    between atoms: _198  and  _200
REMARK   89  A    between atoms: _200  and  _201
REMARK   90  A    between atoms: _200  and  _203
REMARK   91  A    between atoms: _203  and  _204
REMARK   92  A    between atoms: _204  and  _205
REMARK   93  A    between atoms: _210  and  _212
REMARK   94  A    between atoms: _212  and  _213
REMARK   95  A    between atoms: _212  and  _215
REMARK   96  A    between atoms: _215  and  _216
REMARK   97  A    between atoms: _219  and  _221
REMARK   98  A    between atoms: _221  and  _222
REMARK   99  A    between atoms: _221  and  _224
REMARK  100  A    between atoms: _224  and  _225
REMARK  101  A    between atoms: _228  and  _230
REMARK  102  A    between atoms: _230  and  _231
REMARK  103  A    between atoms: _230  and  _233
REMARK  104  A    between atoms: _233  and  _234
REMARK  105  A    between atoms: _239  and  _241
REMARK  106  A    between atoms: _241  and  _242
REMARK  107  A    between atoms: _241  and  _244
REMARK  108  A    between atoms: _244  and  _245
REMARK  109  A    between atoms: _248  and  _250
REMARK  110  A    between atoms: _250  and  _251
REMARK  111  A    between atoms: _250  and  _253
REMARK  112  A    between atoms: _253  and  _254
REMARK  113  A    between atoms: _259  and  _261
REMARK  114  A    between atoms: _261  and  _262
REMARK  115  A    between atoms: _261  and  _264
REMARK  116  A    between atoms: _264  and  _265
REMARK  117  A    between atoms: _268  and  _270
REMARK  118  A    between atoms: _270  and  _271
REMARK  119  A    between atoms: _270  and  _273
REMARK  120  A    between atoms: _273  and  _274
REMARK  121  A    between atoms: _280  and  _282
REMARK  122  A    between atoms: _282  and  _283
REMARK  123  A    between atoms: _282  and  _285
REMARK  124  A    between atoms: _285  and  _286
REMARK  125  A    between atoms: _296  and  _298
REMARK  126  A    between atoms: _298  and  _299
REMARK  127  A    between atoms: _298  and  _301
REMARK  128  A    between atoms: _301  and  _302
REMARK  129  A    between atoms: _306  and  ZN_316
REMARK  130  A    between atoms: _307  and  _309
REMARK  131  A    between atoms: _309  and  _310
REMARK  132  A    between atoms: _309  and  _312
REMARK  133  A    between atoms: _312  and  _313
REMARK                            x       y       z     vdW  Elec       q    Type
REMARK                         _______ _______ _______ _____ _____    ______ ____
ROOT
ATOM      1  O   HOH     1     -20.472  -2.704  21.989  0.00  0.00    +0.000 OA
ENDROOT
TORSDOF 0
REMARK  Name = ../refined-set-2016/2afw/2afw_pocket.pdb
REMARK  133 active torsions:
REMARK  status: ('A' for Active; 'I' for Inactive)
REMARK    1  A    between atoms: _1  and  _3
REMARK    2  A    between atoms: _3  and  _4
REMARK    3  A    between atoms: _3  and  _6
REMARK    4  A    between atoms: _6  and  _7
REMARK    5  A    between atoms: _12  and  _14
REMARK    6  A    between atoms: _14  and  _15
REMARK    7  A    between atoms: _14  and  _17
REMARK    8  A    between atoms: _17  and  _18
REMARK    9  A    between atoms: _21  and  _23
REMARK   10  A    between atoms: _23  and  _24
REMARK   11  A    between atoms: _23  and  _26
REMARK   12  A    between atoms: _26  and  _27
REMARK   13  A    between atoms: _27  and  _28
REMARK   14  A    between atoms: _28  and  _29
REMARK   15  A    between atoms: _29  and  _30
REMARK   16  A    between atoms: _34  and  _36
REMARK   17  A    between atoms: _36  and  _37
REMARK   18  A    between atoms: _36  and  _39
REMARK   19  A    between atoms: _39  and  _40
REMARK   20  A    between atoms: _46  and  _48
REMARK   21  A    between atoms: _48  and  _49
REMARK   22  A    between atoms: _48  and  _51
REMARK   23  A    between atoms: _51  and  _52
REMARK   24  A    between atoms: _55  and  _57
REMARK   25  A    between atoms: _57  and  _58
REMARK   26  A    between atoms: _57  and  _60
REMARK   27  A    between atoms: _60  and  _61
REMARK   28  A    between atoms: _61  and  _63
REMARK   29  A    between atoms: _63  and  ZN_316
REMARK   30  A    between atoms: _64  and  _66
REMARK   31  A    between atoms: _66  and  _67
REMARK   32  A    between atoms: _66  and  _69
REMARK   33  A    between atoms: _69  and  _70
REMARK   34  A    between atoms: _72  and  _74
REMARK   35  A    between atoms: _74  and  _75
REMARK   36  A    between atoms: _74  and  _77
REMARK   37  A    between atoms: _77  and  _78
REMARK   38  A    between atoms: _78  and  _79
REMARK   39  A    between atoms: _82  and  _84
REMARK   40  A    between atoms: _84  and  _85
REMARK   41  A    between atoms: _84  and  _87
REMARK   42  A    between atoms: _87  and  _88
REMARK   43  A    between atoms: _88  and  _89
REMARK   44  A    between atoms: _89  and  _91
REMARK   45  A    between atoms: _91  and  ZN_316
REMARK   46  A    between atoms: _92  and  _94
REMARK   47  A    between atoms: _94  and  _95
REMARK   48  A    between atoms: _98  and  _100
REMARK   49  A    between atoms: _100  and  _101
REMARK   50  A    between atoms: _100  and  _103
REMARK   51  A    between atoms: _103  and  _104
REMARK   52  A    between atoms: _114  and  _116
REMARK   53  A    between atoms: _116  and  _117
REMARK   54  A    between atoms: _116  and  _119
REMARK   55  A    between atoms: _119  and  _120
REMARK   56  A    between atoms: _122  and  _124
REMARK   57  A    between atoms: _124  and  _125
REMARK   58  A    between atoms: _124  and  _127
REMARK   59  A    between atoms: _127  and  _128
REMARK   60  A    between atoms: _131  and  _133
REMARK   61  A    between atoms: _133  and  _134
REMARK   62  A    between atoms: _133  and  _136
REMARK   63  A    between atoms: _136  and  _137
REMARK   64  A    between atoms: _140  and  _142
REMARK   65  A    between atoms: _142  and  _143
REMARK   66  A    between atoms: _142  and  _145
REMARK   67  A    between atoms: _145  and  _146
REMARK   68  A    between atoms: _149  and  _151
REMARK   69  A    between atoms: _151  and  _152
REMARK   70  A    between atoms: _151  and  _154
REMARK   71  A    between atoms: _154  and  _155
REMARK   72  A    between atoms: _158  and  _160
REMARK   73  A    between atoms: _160  and  _161
REMARK   74  A    between atoms: _160  and  _163
REMARK   75  A    between atoms: _163  and  _164
REMARK   76  A    between atoms: _167  and  _169
REMARK   77  A    between atoms: _169  and  _170
REMARK   78  A    between atoms: _169  and  _172
REMARK   79  A    between atoms: _172  and  _173
REMARK   80  A    between atoms: _178  and  _179
REMARK   81  A    between atoms: _181  and  _183
REMARK   82  A    between atoms: _183  and  _184
REMARK   83  A    between atoms: _183  and  _186
REMARK   84  A    between atoms: _189  and  _191
REMARK   85  A    between atoms: _191  and  _192
REMARK   86  A    between atoms: _191  and  _194
REMARK   87  A    between atoms: _194  and  _195
REMARK   88  A    between atoms: _198  and  _200
REMARK   89  A    between atoms: _200  and  _201
REMARK   90  A    between atoms: _200  and  _203
REMARK   91  A    between atoms: _203  and  _204
REMARK   92  A    between atoms: _204  and  _205
REMARK   93  A    between atoms: _210  and  _212
REMARK   94  A    between atoms: _212  and  _213
REMARK   95  A    between atoms: _212  and  _215
REMARK   96  A    between atoms: _215  and  _216
REMARK   97  A    between atoms: _219  and  _221
REMARK   98  A    between atoms: _221  and  _222
REMARK   99  A    between atoms: _221  and  _224
REMARK  100  A    between atoms: _224  and  _225
REMARK  101  A    between atoms: _228  and  _230
REMARK  102  A    between atoms: _230  and  _231
REMARK  103  A    between atoms: _230  and  _233
REMARK  104  A    between atoms: _233  and  _234
REMARK  105  A    between atoms: _239  and  _241
REMARK  106  A    between atoms: _241  and  _242
REMARK  107  A    between atoms: _241  and  _244
REMARK  108  A    between atoms: _244  and  _245
REMARK  109  A    between atoms: _248  and  _250
REMARK  110  A    between atoms: _250  and  _251
REMARK  111  A    between atoms: _250  and  _253
REMARK  112  A    between atoms: _253  and  _254
REMARK  113  A    between atoms: _259  and  _261
REMARK  114  A    between atoms: _261  and  _262
REMARK  115  A    between atoms: _261  and  _264
REMARK  116  A    between atoms: _264  and  _265
REMARK  117  A    between atoms: _268  and  _270
REMARK  118  A    between atoms: _270  and  _271
REMARK  119  A    between atoms: _270  and  _273
REMARK  120  A    between atoms: _273  and  _274
REMARK  121  A    between atoms: _280  and  _282
REMARK  122  A    between atoms: _282  and  _283
REMARK  123  A    between atoms: _282  and  _285
REMARK  124  A    between atoms: _285  and  _286
REMARK  125  A    between atoms: _296  and  _298
REMARK  126  A    between atoms: _298  and  _299
REMARK  127  A    between atoms: _298  and  _301
REMARK  128  A    between atoms: _301  and  _302
REMARK  129  A    between atoms: _306  and  ZN_316
REMARK  130  A    between atoms: _307  and  _309
REMARK  131  A    between atoms: _309  and  _310
REMARK  132  A    between atoms: _309  and  _312
REMARK  133  A    between atoms: _312  and  _313
REMARK                            x       y       z     vdW  Elec       q    Type
REMARK                         _______ _______ _______ _____ _____    ______ ____
ROOT
ATOM      1  O   HOH     1     -18.406  -2.642  23.767  0.00  0.00    +0.000 OA
ENDROOT
TORSDOF 0
REMARK  Name = ../refined-set-2016/2afw/2afw_pocket.pdb
REMARK  133 active torsions:
REMARK  status: ('A' for Active; 'I' for Inactive)
REMARK    1  A    between atoms: _1  and  _3
REMARK    2  A    between atoms: _3  and  _4
REMARK    3  A    between atoms: _3  and  _6
REMARK    4  A    between atoms: _6  and  _7
REMARK    5  A    between atoms: _12  and  _14
REMARK    6  A    between atoms: _14  and  _15
REMARK    7  A    between atoms: _14  and  _17
REMARK    8  A    between atoms: _17  and  _18
REMARK    9  A    between atoms: _21  and  _23
REMARK   10  A    between atoms: _23  and  _24
REMARK   11  A    between atoms: _23  and  _26
REMARK   12  A    between atoms: _26  and  _27
REMARK   13  A    between atoms: _27  and  _28
REMARK   14  A    between atoms: _28  and  _29
REMARK   15  A    between atoms: _29  and  _30
REMARK   16  A    between atoms: _34  and  _36
REMARK   17  A    between atoms: _36  and  _37
REMARK   18  A    between atoms: _36  and  _39
REMARK   19  A    between atoms: _39  and  _40
REMARK   20  A    between atoms: _46  and  _48
REMARK   21  A    between atoms: _48  and  _49
REMARK   22  A    between atoms: _48  and  _51
REMARK   23  A    between atoms: _51  and  _52
REMARK   24  A    between atoms: _55  and  _57
REMARK   25  A    between atoms: _57  and  _58
REMARK   26  A    between atoms: _57  and  _60
REMARK   27  A    between atoms: _60  and  _61
REMARK   28  A    between atoms: _61  and  _63
REMARK   29  A    between atoms: _63  and  ZN_316
REMARK   30  A    between atoms: _64  and  _66
REMARK   31  A    between atoms: _66  and  _67
REMARK   32  A    between atoms: _66  and  _69
REMARK   33  A    between atoms: _69  and  _70
REMARK   34  A    between atoms: _72  and  _74
REMARK   35  A    between atoms: _74  and  _75
REMARK   36  A    between atoms: _74  and  _77
REMARK   37  A    between atoms: _77  and  _78
REMARK   38  A    between atoms: _78  and  _79
REMARK   39  A    between atoms: _82  and  _84
REMARK   40  A    between atoms: _84  and  _85
REMARK   41  A    between atoms: _84  and  _87
REMARK   42  A    between atoms: _87  and  _88
REMARK   43  A    between atoms: _88  and  _89
REMARK   44  A    between atoms: _89  and  _91
REMARK   45  A    between atoms: _91  and  ZN_316
REMARK   46  A    between atoms: _92  and  _94
REMARK   47  A    between atoms: _94  and  _95
REMARK   48  A    between atoms: _98  and  _100
REMARK   49  A    between atoms: _100  and  _101
REMARK   50  A    between atoms: _100  and  _103
REMARK   51  A    between atoms: _103  and  _104
REMARK   52  A    between atoms: _114  and  _116
REMARK   53  A    between atoms: _116  and  _117
REMARK   54  A    between atoms: _116  and  _119
REMARK   55  A    between atoms: _119  and  _120
REMARK   56  A    between atoms: _122  and  _124
REMARK   57  A    between atoms: _124  and  _125
REMARK   58  A    between atoms: _124  and  _127
REMARK   59  A    between atoms: _127  and  _128
REMARK   60  A    between atoms: _131  and  _133
REMARK   61  A    between atoms: _133  and  _134
REMARK   62  A    between atoms: _133  and  _136
REMARK   63  A    between atoms: _136  and  _137
REMARK   64  A    between atoms: _140  and  _142
REMARK   65  A    between atoms: _142  and  _143
REMARK   66  A    between atoms: _142  and  _145
REMARK   67  A    between atoms: _145  and  _146
REMARK   68  A    between atoms: _149  and  _151
REMARK   69  A    between atoms: _151  and  _152
REMARK   70  A    between atoms: _151  and  _154
REMARK   71  A    between atoms: _154  and  _155
REMARK   72  A    between atoms: _158  and  _160
REMARK   73  A    between atoms: _160  and  _161
REMARK   74  A    between atoms: _160  and  _163
REMARK   75  A    between atoms: _163  and  _164
REMARK   76  A    between atoms: _167  and  _169
REMARK   77  A    between atoms: _169  and  _170
REMARK   78  A    between atoms: _169  and  _172
REMARK   79  A    between atoms: _172  and  _173
REMARK   80  A    between atoms: _178  and  _179
REMARK   81  A    between atoms: _181  and  _183
REMARK   82  A    between atoms: _183  and  _184
REMARK   83  A    between atoms: _183  and  _186
REMARK   84  A    between atoms: _189  and  _191
REMARK   85  A    between atoms: _191  and  _192
REMARK   86  A    between atoms: _191  and  _194
REMARK   87  A    between atoms: _194  and  _195
REMARK   88  A    between atoms: _198  and  _200
REMARK   89  A    between atoms: _200  and  _201
REMARK   90  A    between atoms: _200  and  _203
REMARK   91  A    between atoms: _203  and  _204
REMARK   92  A    between atoms: _204  and  _205
REMARK   93  A    between atoms: _210  and  _212
REMARK   94  A    between atoms: _212  and  _213
REMARK   95  A    between atoms: _212  and  _215
REMARK   96  A    between atoms: _215  and  _216
REMARK   97  A    between atoms: _219  and  _221
REMARK   98  A    between atoms: _221  and  _222
REMARK   99  A    between atoms: _221  and  _224
REMARK  100  A    between atoms: _224  and  _225
REMARK  101  A    between atoms: _228  and  _230
REMARK  102  A    between atoms: _230  and  _231
REMARK  103  A    between atoms: _230  and  _233
REMARK  104  A    between atoms: _233  and  _234
REMARK  105  A    between atoms: _239  and  _241
REMARK  106  A    between atoms: _241  and  _242
REMARK  107  A    between atoms: _241  and  _244
REMARK  108  A    between atoms: _244  and  _245
REMARK  109  A    between atoms: _248  and  _250
REMARK  110  A    between atoms: _250  and  _251
REMARK  111  A    between atoms: _250  and  _253
REMARK  112  A    between atoms: _253  and  _254
REMARK  113  A    between atoms: _259  and  _261
REMARK  114  A    between atoms: _261  and  _262
REMARK  115  A    between atoms: _261  and  _264
REMARK  116  A    between atoms: _264  and  _265
REMARK  117  A    between atoms: _268  and  _270
REMARK  118  A    between atoms: _270  and  _271
REMARK  119  A    between atoms: _270  and  _273
REMARK  120  A    between atoms: _273  and  _274
REMARK  121  A    between atoms: _280  and  _282
REMARK  122  A    between atoms: _282  and  _283
REMARK  123  A    between atoms: _282  and  _285
REMARK  124  A    between atoms: _285  and  _286
REMARK  125  A    between atoms: _296  and  _298
REMARK  126  A    between atoms: _298  and  _299
REMARK  127  A    between atoms: _298  and  _301
REMARK  128  A    between atoms: _301  and  _302
REMARK  129  A    between atoms: _306  and  ZN_316
REMARK  130  A    between atoms: _307  and  _309
REMARK  131  A    between atoms: _309  and  _310
REMARK  132  A    between atoms: _309  and  _312
REMARK  133  A    between atoms: _312  and  _313
REMARK                            x       y       z     vdW  Elec       q    Type
REMARK                         _______ _______ _______ _____ _____    ______ ____
ROOT
ATOM      1  O   HOH     1     -22.683   5.133  23.343  0.00  0.00    +0.000 OA
ENDROOT
TORSDOF 0
REMARK  Name = ../refined-set-2016/2afw/2afw_pocket.pdb
REMARK  133 active torsions:
REMARK  status: ('A' for Active; 'I' for Inactive)
REMARK    1  A    between atoms: _1  and  _3
REMARK    2  A    between atoms: _3  and  _4
REMARK    3  A    between atoms: _3  and  _6
REMARK    4  A    between atoms: _6  and  _7
REMARK    5  A    between atoms: _12  and  _14
REMARK    6  A    between atoms: _14  and  _15
REMARK    7  A    between atoms: _14  and  _17
REMARK    8  A    between atoms: _17  and  _18
REMARK    9  A    between atoms: _21  and  _23
REMARK   10  A    between atoms: _23  and  _24
REMARK   11  A    between atoms: _23  and  _26
REMARK   12  A    between atoms: _26  and  _27
REMARK   13  A    between atoms: _27  and  _28
REMARK   14  A    between atoms: _28  and  _29
REMARK   15  A    between atoms: _29  and  _30
REMARK   16  A    between atoms: _34  and  _36
REMARK   17  A    between atoms: _36  and  _37
REMARK   18  A    between atoms: _36  and  _39
REMARK   19  A    between atoms: _39  and  _40
REMARK   20  A    between atoms: _46  and  _48
REMARK   21  A    between atoms: _48  and  _49
REMARK   22  A    between atoms: _48  and  _51
REMARK   23  A    between atoms: _51  and  _52
REMARK   24  A    between atoms: _55  and  _57
REMARK   25  A    between atoms: _57  and  _58
REMARK   26  A    between atoms: _57  and  _60
REMARK   27  A    between atoms: _60  and  _61
REMARK   28  A    between atoms: _61  and  _63
REMARK   29  A    between atoms: _63  and  ZN_316
REMARK   30  A    between atoms: _64  and  _66
REMARK   31  A    between atoms: _66  and  _67
REMARK   32  A    between atoms: _66  and  _69
REMARK   33  A    between atoms: _69  and  _70
REMARK   34  A    between atoms: _72  and  _74
REMARK   35  A    between atoms: _74  and  _75
REMARK   36  A    between atoms: _74  and  _77
REMARK   37  A    between atoms: _77  and  _78
REMARK   38  A    between atoms: _78  and  _79
REMARK   39  A    between atoms: _82  and  _84
REMARK   40  A    between atoms: _84  and  _85
REMARK   41  A    between atoms: _84  and  _87
REMARK   42  A    between atoms: _87  and  _88
REMARK   43  A    between atoms: _88  and  _89
REMARK   44  A    between atoms: _89  and  _91
REMARK   45  A    between atoms: _91  and  ZN_316
REMARK   46  A    between atoms: _92  and  _94
REMARK   47  A    between atoms: _94  and  _95
REMARK   48  A    between atoms: _98  and  _100
REMARK   49  A    between atoms: _100  and  _101
REMARK   50  A    between atoms: _100  and  _103
REMARK   51  A    between atoms: _103  and  _104
REMARK   52  A    between atoms: _114  and  _116
REMARK   53  A    between atoms: _116  and  _117
REMARK   54  A    between atoms: _116  and  _119
REMARK   55  A    between atoms: _119  and  _120
REMARK   56  A    between atoms: _122  and  _124
REMARK   57  A    between atoms: _124  and  _125
REMARK   58  A    between atoms: _124  and  _127
REMARK   59  A    between atoms: _127  and  _128
REMARK   60  A    between atoms: _131  and  _133
REMARK   61  A    between atoms: _133  and  _134
REMARK   62  A    between atoms: _133  and  _136
REMARK   63  A    between atoms: _136  and  _137
REMARK   64  A    between atoms: _140  and  _142
REMARK   65  A    between atoms: _142  and  _143
REMARK   66  A    between atoms: _142  and  _145
REMARK   67  A    between atoms: _145  and  _146
REMARK   68  A    between atoms: _149  and  _151
REMARK   69  A    between atoms: _151  and  _152
REMARK   70  A    between atoms: _151  and  _154
REMARK   71  A    between atoms: _154  and  _155
REMARK   72  A    between atoms: _158  and  _160
REMARK   73  A    between atoms: _160  and  _161
REMARK   74  A    between atoms: _160  and  _163
REMARK   75  A    between atoms: _163  and  _164
REMARK   76  A    between atoms: _167  and  _169
REMARK   77  A    between atoms: _169  and  _170
REMARK   78  A    between atoms: _169  and  _172
REMARK   79  A    between atoms: _172  and  _173
REMARK   80  A    between atoms: _178  and  _179
REMARK   81  A    between atoms: _181  and  _183
REMARK   82  A    between atoms: _183  and  _184
REMARK   83  A    between atoms: _183  and  _186
REMARK   84  A    between atoms: _189  and  _191
REMARK   85  A    between atoms: _191  and  _192
REMARK   86  A    between atoms: _191  and  _194
REMARK   87  A    between atoms: _194  and  _195
REMARK   88  A    between atoms: _198  and  _200
REMARK   89  A    between atoms: _200  and  _201
REMARK   90  A    between atoms: _200  and  _203
REMARK   91  A    between atoms: _203  and  _204
REMARK   92  A    between atoms: _204  and  _205
REMARK   93  A    between atoms: _210  and  _212
REMARK   94  A    between atoms: _212  and  _213
REMARK   95  A    between atoms: _212  and  _215
REMARK   96  A    between atoms: _215  and  _216
REMARK   97  A    between atoms: _219  and  _221
REMARK   98  A    between atoms: _221  and  _222
REMARK   99  A    between atoms: _221  and  _224
REMARK  100  A    between atoms: _224  and  _225
REMARK  101  A    between atoms: _228  and  _230
REMARK  102  A    between atoms: _230  and  _231
REMARK  103  A    between atoms: _230  and  _233
REMARK  104  A    between atoms: _233  and  _234
REMARK  105  A    between atoms: _239  and  _241
REMARK  106  A    between atoms: _241  and  _242
REMARK  107  A    between atoms: _241  and  _244
REMARK  108  A    between atoms: _244  and  _245
REMARK  109  A    between atoms: _248  and  _250
REMARK  110  A    between atoms: _250  and  _251
REMARK  111  A    between atoms: _250  and  _253
REMARK  112  A    between atoms: _253  and  _254
REMARK  113  A    between atoms: _259  and  _261
REMARK  114  A    between atoms: _261  and  _262
REMARK  115  A    between atoms: _261  and  _264
REMARK  116  A    between atoms: _264  and  _265
REMARK  117  A    between atoms: _268  and  _270
REMARK  118  A    between atoms: _270  and  _271
REMARK  119  A    between atoms: _270  and  _273
REMARK  120  A    between atoms: _273  and  _274
REMARK  121  A    between atoms: _280  and  _282
REMARK  122  A    between atoms: _282  and  _283
REMARK  123  A    between atoms: _282  and  _285
REMARK  124  A    between atoms: _285  and  _286
REMARK  125  A    between atoms: _296  and  _298
REMARK  126  A    between atoms: _298  and  _299
REMARK  127  A    between atoms: _298  and  _301
REMARK  128  A    between atoms: _301  and  _302
REMARK  129  A    between atoms: _306  and  ZN_316
REMARK  130  A    between atoms: _307  and  _309
REMARK  131  A    between atoms: _309  and  _310
REMARK  132  A    between atoms: _309  and  _312
REMARK  133  A    between atoms: _312  and  _313
REMARK                            x       y       z     vdW  Elec       q    Type
REMARK                         _______ _______ _______ _____ _____    ______ ____
ROOT
ATOM      1  O   HOH     1     -16.841   7.448  26.320  0.00  0.00    +0.000 OA
ENDROOT
TORSDOF 0
REMARK  Name = ../refined-set-2016/2afw/2afw_pocket.pdb
REMARK  133 active torsions:
REMARK  status: ('A' for Active; 'I' for Inactive)
REMARK    1  A    between atoms: _1  and  _3
REMARK    2  A    between atoms: _3  and  _4
REMARK    3  A    between atoms: _3  and  _6
REMARK    4  A    between atoms: _6  and  _7
REMARK    5  A    between atoms: _12  and  _14
REMARK    6  A    between atoms: _14  and  _15
REMARK    7  A    between atoms: _14  and  _17
REMARK    8  A    between atoms: _17  and  _18
REMARK    9  A    between atoms: _21  and  _23
REMARK   10  A    between atoms: _23  and  _24
REMARK   11  A    between atoms: _23  and  _26
REMARK   12  A    between atoms: _26  and  _27
REMARK   13  A    between atoms: _27  and  _28
REMARK   14  A    between atoms: _28  and  _29
REMARK   15  A    between atoms: _29  and  _30
REMARK   16  A    between atoms: _34  and  _36
REMARK   17  A    between atoms: _36  and  _37
REMARK   18  A    between atoms: _36  and  _39
REMARK   19  A    between atoms: _39  and  _40
REMARK   20  A    between atoms: _46  and  _48
REMARK   21  A    between atoms: _48  and  _49
REMARK   22  A    between atoms: _48  and  _51
REMARK   23  A    between atoms: _51  and  _52
REMARK   24  A    between atoms: _55  and  _57
REMARK   25  A    between atoms: _57  and  _58
REMARK   26  A    between atoms: _57  and  _60
REMARK   27  A    between atoms: _60  and  _61
REMARK   28  A    between atoms: _61  and  _63
REMARK   29  A    between atoms: _63  and  ZN_316
REMARK   30  A    between atoms: _64  and  _66
REMARK   31  A    between atoms: _66  and  _67
REMARK   32  A    between atoms: _66  and  _69
REMARK   33  A    between atoms: _69  and  _70
REMARK   34  A    between atoms: _72  and  _74
REMARK   35  A    between atoms: _74  and  _75
REMARK   36  A    between atoms: _74  and  _77
REMARK   37  A    between atoms: _77  and  _78
REMARK   38  A    between atoms: _78  and  _79
REMARK   39  A    between atoms: _82  and  _84
REMARK   40  A    between atoms: _84  and  _85
REMARK   41  A    between atoms: _84  and  _87
REMARK   42  A    between atoms: _87  and  _88
REMARK   43  A    between atoms: _88  and  _89
REMARK   44  A    between atoms: _89  and  _91
REMARK   45  A    between atoms: _91  and  ZN_316
REMARK   46  A    between atoms: _92  and  _94
REMARK   47  A    between atoms: _94  and  _95
REMARK   48  A    between atoms: _98  and  _100
REMARK   49  A    between atoms: _100  and  _101
REMARK   50  A    between atoms: _100  and  _103
REMARK   51  A    between atoms: _103  and  _104
REMARK   52  A    between atoms: _114  and  _116
REMARK   53  A    between atoms: _116  and  _117
REMARK   54  A    between atoms: _116  and  _119
REMARK   55  A    between atoms: _119  and  _120
REMARK   56  A    between atoms: _122  and  _124
REMARK   57  A    between atoms: _124  and  _125
REMARK   58  A    between atoms: _124  and  _127
REMARK   59  A    between atoms: _127  and  _128
REMARK   60  A    between atoms: _131  and  _133
REMARK   61  A    between atoms: _133  and  _134
REMARK   62  A    between atoms: _133  and  _136
REMARK   63  A    between atoms: _136  and  _137
REMARK   64  A    between atoms: _140  and  _142
REMARK   65  A    between atoms: _142  and  _143
REMARK   66  A    between atoms: _142  and  _145
REMARK   67  A    between atoms: _145  and  _146
REMARK   68  A    between atoms: _149  and  _151
REMARK   69  A    between atoms: _151  and  _152
REMARK   70  A    between atoms: _151  and  _154
REMARK   71  A    between atoms: _154  and  _155
REMARK   72  A    between atoms: _158  and  _160
REMARK   73  A    between atoms: _160  and  _161
REMARK   74  A    between atoms: _160  and  _163
REMARK   75  A    between atoms: _163  and  _164
REMARK   76  A    between atoms: _167  and  _169
REMARK   77  A    between atoms: _169  and  _170
REMARK   78  A    between atoms: _169  and  _172
REMARK   79  A    between atoms: _172  and  _173
REMARK   80  A    between atoms: _178  and  _179
REMARK   81  A    between atoms: _181  and  _183
REMARK   82  A    between atoms: _183  and  _184
REMARK   83  A    between atoms: _183  and  _186
REMARK   84  A    between atoms: _189  and  _191
REMARK   85  A    between atoms: _191  and  _192
REMARK   86  A    between atoms: _191  and  _194
REMARK   87  A    between atoms: _194  and  _195
REMARK   88  A    between atoms: _198  and  _200
REMARK   89  A    between atoms: _200  and  _201
REMARK   90  A    between atoms: _200  and  _203
REMARK   91  A    between atoms: _203  and  _204
REMARK   92  A    between atoms: _204  and  _205
REMARK   93  A    between atoms: _210  and  _212
REMARK   94  A    between atoms: _212  and  _213
REMARK   95  A    between atoms: _212  and  _215
REMARK   96  A    between atoms: _215  and  _216
REMARK   97  A    between atoms: _219  and  _221
REMARK   98  A    between atoms: _221  and  _222
REMARK   99  A    between atoms: _221  and  _224
REMARK  100  A    between atoms: _224  and  _225
REMARK  101  A    between atoms: _228  and  _230
REMARK  102  A    between atoms: _230  and  _231
REMARK  103  A    between atoms: _230  and  _233
REMARK  104  A    between atoms: _233  and  _234
REMARK  105  A    between atoms: _239  and  _241
REMARK  106  A    between atoms: _241  and  _242
REMARK  107  A    between atoms: _241  and  _244
REMARK  108  A    between atoms: _244  and  _245
REMARK  109  A    between atoms: _248  and  _250
REMARK  110  A    between atoms: _250  and  _251
REMARK  111  A    between atoms: _250  and  _253
REMARK  112  A    between atoms: _253  and  _254
REMARK  113  A    between atoms: _259  and  _261
REMARK  114  A    between atoms: _261  and  _262
REMARK  115  A    between atoms: _261  and  _264
REMARK  116  A    between atoms: _264  and  _265
REMARK  117  A    between atoms: _268  and  _270
REMARK  118  A    between atoms: _270  and  _271
REMARK  119  A    between atoms: _270  and  _273
REMARK  120  A    between atoms: _273  and  _274
REMARK  121  A    between atoms: _280  and  _282
REMARK  122  A    between atoms: _282  and  _283
REMARK  123  A    between atoms: _282  and  _285
REMARK  124  A    between atoms: _285  and  _286
REMARK  125  A    between atoms: _296  and  _298
REMARK  126  A    between atoms: _298  and  _299
REMARK  127  A    between atoms: _298  and  _301
REMARK  128  A    between atoms: _301  and  _302
REMARK  129  A    between atoms: _306  and  ZN_316
REMARK  130  A    between atoms: _307  and  _309
REMARK  131  A    between atoms: _309  and  _310
REMARK  132  A    between atoms: _309  and  _312
REMARK  133  A    between atoms: _312  and  _313
REMARK                            x       y       z     vdW  Elec       q    Type
REMARK                         _______ _______ _______ _____ _____    ______ ____
ROOT
ATOM      1  O   HOH     1     -15.720  11.365  22.185  0.00  0.00    +0.000 OA
ENDROOT
TORSDOF 0
REMARK  Name = ../refined-set-2016/2afw/2afw_pocket.pdb
REMARK  133 active torsions:
REMARK  status: ('A' for Active; 'I' for Inactive)
REMARK    1  A    between atoms: _1  and  _3
REMARK    2  A    between atoms: _3  and  _4
REMARK    3  A    between atoms: _3  and  _6
REMARK    4  A    between atoms: _6  and  _7
REMARK    5  A    between atoms: _12  and  _14
REMARK    6  A    between atoms: _14  and  _15
REMARK    7  A    between atoms: _14  and  _17
REMARK    8  A    between atoms: _17  and  _18
REMARK    9  A    between atoms: _21  and  _23
REMARK   10  A    between atoms: _23  and  _24
REMARK   11  A    between atoms: _23  and  _26
REMARK   12  A    between atoms: _26  and  _27
REMARK   13  A    between atoms: _27  and  _28
REMARK   14  A    between atoms: _28  and  _29
REMARK   15  A    between atoms: _29  and  _30
REMARK   16  A    between atoms: _34  and  _36
REMARK   17  A    between atoms: _36  and  _37
REMARK   18  A    between atoms: _36  and  _39
REMARK   19  A    between atoms: _39  and  _40
REMARK   20  A    between atoms: _46  and  _48
REMARK   21  A    between atoms: _48  and  _49
REMARK   22  A    between atoms: _48  and  _51
REMARK   23  A    between atoms: _51  and  _52
REMARK   24  A    between atoms: _55  and  _57
REMARK   25  A    between atoms: _57  and  _58
REMARK   26  A    between atoms: _57  and  _60
REMARK   27  A    between atoms: _60  and  _61
REMARK   28  A    between atoms: _61  and  _63
REMARK   29  A    between atoms: _63  and  ZN_316
REMARK   30  A    between atoms: _64  and  _66
REMARK   31  A    between atoms: _66  and  _67
REMARK   32  A    between atoms: _66  and  _69
REMARK   33  A    between atoms: _69  and  _70
REMARK   34  A    between atoms: _72  and  _74
REMARK   35  A    between atoms: _74  and  _75
REMARK   36  A    between atoms: _74  and  _77
REMARK   37  A    between atoms: _77  and  _78
REMARK   38  A    between atoms: _78  and  _79
REMARK   39  A    between atoms: _82  and  _84
REMARK   40  A    between atoms: _84  and  _85
REMARK   41  A    between atoms: _84  and  _87
REMARK   42  A    between atoms: _87  and  _88
REMARK   43  A    between atoms: _88  and  _89
REMARK   44  A    between atoms: _89  and  _91
REMARK   45  A    between atoms: _91  and  ZN_316
REMARK   46  A    between atoms: _92  and  _94
REMARK   47  A    between atoms: _94  and  _95
REMARK   48  A    between atoms: _98  and  _100
REMARK   49  A    between atoms: _100  and  _101
REMARK   50  A    between atoms: _100  and  _103
REMARK   51  A    between atoms: _103  and  _104
REMARK   52  A    between atoms: _114  and  _116
REMARK   53  A    between atoms: _116  and  _117
REMARK   54  A    between atoms: _116  and  _119
REMARK   55  A    between atoms: _119  and  _120
REMARK   56  A    between atoms: _122  and  _124
REMARK   57  A    between atoms: _124  and  _125
REMARK   58  A    between atoms: _124  and  _127
REMARK   59  A    between atoms: _127  and  _128
REMARK   60  A    between atoms: _131  and  _133
REMARK   61  A    between atoms: _133  and  _134
REMARK   62  A    between atoms: _133  and  _136
REMARK   63  A    between atoms: _136  and  _137
REMARK   64  A    between atoms: _140  and  _142
REMARK   65  A    between atoms: _142  and  _143
REMARK   66  A    between atoms: _142  and  _145
REMARK   67  A    between atoms: _145  and  _146
REMARK   68  A    between atoms: _149  and  _151
REMARK   69  A    between atoms: _151  and  _152
REMARK   70  A    between atoms: _151  and  _154
REMARK   71  A    between atoms: _154  and  _155
REMARK   72  A    between atoms: _158  and  _160
REMARK   73  A    between atoms: _160  and  _161
REMARK   74  A    between atoms: _160  and  _163
REMARK   75  A    between atoms: _163  and  _164
REMARK   76  A    between atoms: _167  and  _169
REMARK   77  A    between atoms: _169  and  _170
REMARK   78  A    between atoms: _169  and  _172
REMARK   79  A    between atoms: _172  and  _173
REMARK   80  A    between atoms: _178  and  _179
REMARK   81  A    between atoms: _181  and  _183
REMARK   82  A    between atoms: _183  and  _184
REMARK   83  A    between atoms: _183  and  _186
REMARK   84  A    between atoms: _189  and  _191
REMARK   85  A    between atoms: _191  and  _192
REMARK   86  A    between atoms: _191  and  _194
REMARK   87  A    between atoms: _194  and  _195
REMARK   88  A    between atoms: _198  and  _200
REMARK   89  A    between atoms: _200  and  _201
REMARK   90  A    between atoms: _200  and  _203
REMARK   91  A    between atoms: _203  and  _204
REMARK   92  A    between atoms: _204  and  _205
REMARK   93  A    between atoms: _210  and  _212
REMARK   94  A    between atoms: _212  and  _213
REMARK   95  A    between atoms: _212  and  _215
REMARK   96  A    between atoms: _215  and  _216
REMARK   97  A    between atoms: _219  and  _221
REMARK   98  A    between atoms: _221  and  _222
REMARK   99  A    between atoms: _221  and  _224
REMARK  100  A    between atoms: _224  and  _225
REMARK  101  A    between atoms: _228  and  _230
REMARK  102  A    between atoms: _230  and  _231
REMARK  103  A    between atoms: _230  and  _233
REMARK  104  A    between atoms: _233  and  _234
REMARK  105  A    between atoms: _239  and  _241
REMARK  106  A    between atoms: _241  and  _242
REMARK  107  A    between atoms: _241  and  _244
REMARK  108  A    between atoms: _244  and  _245
REMARK  109  A    between atoms: _248  and  _250
REMARK  110  A    between atoms: _250  and  _251
REMARK  111  A    between atoms: _250  and  _253
REMARK  112  A    between atoms: _253  and  _254
REMARK  113  A    between atoms: _259  and  _261
REMARK  114  A    between atoms: _261  and  _262
REMARK  115  A    between atoms: _261  and  _264
REMARK  116  A    between atoms: _264  and  _265
REMARK  117  A    between atoms: _268  and  _270
REMARK  118  A    between atoms: _270  and  _271
REMARK  119  A    between atoms: _270  and  _273
REMARK  120  A    between atoms: _273  and  _274
REMARK  121  A    between atoms: _280  and  _282
REMARK  122  A    between atoms: _282  and  _283
REMARK  123  A    between atoms: _282  and  _285
REMARK  124  A    between atoms: _285  and  _286
REMARK  125  A    between atoms: _296  and  _298
REMARK  126  A    between atoms: _298  and  _299
REMARK  127  A    between atoms: _298  and  _301
REMARK  128  A    between atoms: _301  and  _302
REMARK  129  A    between atoms: _306  and  ZN_316
REMARK  130  A    between atoms: _307  and  _309
REMARK  131  A    between atoms: _309  and  _310
REMARK  132  A    between atoms: _309  and  _312
REMARK  133  A    between atoms: _312  and  _313
REMARK                            x       y       z     vdW  Elec       q    Type
REMARK                         _______ _______ _______ _____ _____    ______ ____
ROOT
ATOM      1  O   HOH     1      -7.317  -4.053  22.082  0.00  0.00    +0.000 OA
ENDROOT
TORSDOF 0
REMARK  Name = ../refined-set-2016/2afw/2afw_pocket.pdb
REMARK  133 active torsions:
REMARK  status: ('A' for Active; 'I' for Inactive)
REMARK    1  A    between atoms: _1  and  _3
REMARK    2  A    between atoms: _3  and  _4
REMARK    3  A    between atoms: _3  and  _6
REMARK    4  A    between atoms: _6  and  _7
REMARK    5  A    between atoms: _12  and  _14
REMARK    6  A    between atoms: _14  and  _15
REMARK    7  A    between atoms: _14  and  _17
REMARK    8  A    between atoms: _17  and  _18
REMARK    9  A    between atoms: _21  and  _23
REMARK   10  A    between atoms: _23  and  _24
REMARK   11  A    between atoms: _23  and  _26
REMARK   12  A    between atoms: _26  and  _27
REMARK   13  A    between atoms: _27  and  _28
REMARK   14  A    between atoms: _28  and  _29
REMARK   15  A    between atoms: _29  and  _30
REMARK   16  A    between atoms: _34  and  _36
REMARK   17  A    between atoms: _36  and  _37
REMARK   18  A    between atoms: _36  and  _39
REMARK   19  A    between atoms: _39  and  _40
REMARK   20  A    between atoms: _46  and  _48
REMARK   21  A    between atoms: _48  and  _49
REMARK   22  A    between atoms: _48  and  _51
REMARK   23  A    between atoms: _51  and  _52
REMARK   24  A    between atoms: _55  and  _57
REMARK   25  A    between atoms: _57  and  _58
REMARK   26  A    between atoms: _57  and  _60
REMARK   27  A    between atoms: _60  and  _61
REMARK   28  A    between atoms: _61  and  _63
REMARK   29  A    between atoms: _63  and  ZN_316
REMARK   30  A    between atoms: _64  and  _66
REMARK   31  A    between atoms: _66  and  _67
REMARK   32  A    between atoms: _66  and  _69
REMARK   33  A    between atoms: _69  and  _70
REMARK   34  A    between atoms: _72  and  _74
REMARK   35  A    between atoms: _74  and  _75
REMARK   36  A    between atoms: _74  and  _77
REMARK   37  A    between atoms: _77  and  _78
REMARK   38  A    between atoms: _78  and  _79
REMARK   39  A    between atoms: _82  and  _84
REMARK   40  A    between atoms: _84  and  _85
REMARK   41  A    between atoms: _84  and  _87
REMARK   42  A    between atoms: _87  and  _88
REMARK   43  A    between atoms: _88  and  _89
REMARK   44  A    between atoms: _89  and  _91
REMARK   45  A    between atoms: _91  and  ZN_316
REMARK   46  A    between atoms: _92  and  _94
REMARK   47  A    between atoms: _94  and  _95
REMARK   48  A    between atoms: _98  and  _100
REMARK   49  A    between atoms: _100  and  _101
REMARK   50  A    between atoms: _100  and  _103
REMARK   51  A    between atoms: _103  and  _104
REMARK   52  A    between atoms: _114  and  _116
REMARK   53  A    between atoms: _116  and  _117
REMARK   54  A    between atoms: _116  and  _119
REMARK   55  A    between atoms: _119  and  _120
REMARK   56  A    between atoms: _122  and  _124
REMARK   57  A    between atoms: _124  and  _125
REMARK   58  A    between atoms: _124  and  _127
REMARK   59  A    between atoms: _127  and  _128
REMARK   60  A    between atoms: _131  and  _133
REMARK   61  A    between atoms: _133  and  _134
REMARK   62  A    between atoms: _133  and  _136
REMARK   63  A    between atoms: _136  and  _137
REMARK   64  A    between atoms: _140  and  _142
REMARK   65  A    between atoms: _142  and  _143
REMARK   66  A    between atoms: _142  and  _145
REMARK   67  A    between atoms: _145  and  _146
REMARK   68  A    between atoms: _149  and  _151
REMARK   69  A    between atoms: _151  and  _152
REMARK   70  A    between atoms: _151  and  _154
REMARK   71  A    between atoms: _154  and  _155
REMARK   72  A    between atoms: _158  and  _160
REMARK   73  A    between atoms: _160  and  _161
REMARK   74  A    between atoms: _160  and  _163
REMARK   75  A    between atoms: _163  and  _164
REMARK   76  A    between atoms: _167  and  _169
REMARK   77  A    between atoms: _169  and  _170
REMARK   78  A    between atoms: _169  and  _172
REMARK   79  A    between atoms: _172  and  _173
REMARK   80  A    between atoms: _178  and  _179
REMARK   81  A    between atoms: _181  and  _183
REMARK   82  A    between atoms: _183  and  _184
REMARK   83  A    between atoms: _183  and  _186
REMARK   84  A    between atoms: _189  and  _191
REMARK   85  A    between atoms: _191  and  _192
REMARK   86  A    between atoms: _191  and  _194
REMARK   87  A    between atoms: _194  and  _195
REMARK   88  A    between atoms: _198  and  _200
REMARK   89  A    between atoms: _200  and  _201
REMARK   90  A    between atoms: _200  and  _203
REMARK   91  A    between atoms: _203  and  _204
REMARK   92  A    between atoms: _204  and  _205
REMARK   93  A    between atoms: _210  and  _212
REMARK   94  A    between atoms: _212  and  _213
REMARK   95  A    between atoms: _212  and  _215
REMARK   96  A    between atoms: _215  and  _216
REMARK   97  A    between atoms: _219  and  _221
REMARK   98  A    between atoms: _221  and  _222
REMARK   99  A    between atoms: _221  and  _224
REMARK  100  A    between atoms: _224  and  _225
REMARK  101  A    between atoms: _228  and  _230
REMARK  102  A    between atoms: _230  and  _231
REMARK  103  A    between atoms: _230  and  _233
REMARK  104  A    between atoms: _233  and  _234
REMARK  105  A    between atoms: _239  and  _241
REMARK  106  A    between atoms: _241  and  _242
REMARK  107  A    between atoms: _241  and  _244
REMARK  108  A    between atoms: _244  and  _245
REMARK  109  A    between atoms: _248  and  _250
REMARK  110  A    between atoms: _250  and  _251
REMARK  111  A    between atoms: _250  and  _253
REMARK  112  A    between atoms: _253  and  _254
REMARK  113  A    between atoms: _259  and  _261
REMARK  114  A    between atoms: _261  and  _262
REMARK  115  A    between atoms: _261  and  _264
REMARK  116  A    between atoms: _264  and  _265
REMARK  117  A    between atoms: _268  and  _270
REMARK  118  A    between atoms: _270  and  _271
REMARK  119  A    between atoms: _270  and  _273
REMARK  120  A    between atoms: _273  and  _274
REMARK  121  A    between atoms: _280  and  _282
REMARK  122  A    between atoms: _282  and  _283
REMARK  123  A    between atoms: _282  and  _285
REMARK  124  A    between atoms: _285  and  _286
REMARK  125  A    between atoms: _296  and  _298
REMARK  126  A    between atoms: _298  and  _299
REMARK  127  A    between atoms: _298  and  _301
REMARK  128  A    between atoms: _301  and  _302
REMARK  129  A    between atoms: _306  and  ZN_316
REMARK  130  A    between atoms: _307  and  _309
REMARK  131  A    between atoms: _309  and  _310
REMARK  132  A    between atoms: _309  and  _312
REMARK  133  A    between atoms: _312  and  _313
REMARK                            x       y       z     vdW  Elec       q    Type
REMARK                         _______ _______ _______ _____ _____    ______ ____
ROOT
ATOM      1  O   HOH     1      -9.632   3.418  14.687  0.00  0.00    +0.000 OA
ENDROOT
TORSDOF 0
REMARK  Name = ../refined-set-2016/2afw/2afw_pocket.pdb
REMARK  133 active torsions:
REMARK  status: ('A' for Active; 'I' for Inactive)
REMARK    1  A    between atoms: _1  and  _3
REMARK    2  A    between atoms: _3  and  _4
REMARK    3  A    between atoms: _3  and  _6
REMARK    4  A    between atoms: _6  and  _7
REMARK    5  A    between atoms: _12  and  _14
REMARK    6  A    between atoms: _14  and  _15
REMARK    7  A    between atoms: _14  and  _17
REMARK    8  A    between atoms: _17  and  _18
REMARK    9  A    between atoms: _21  and  _23
REMARK   10  A    between atoms: _23  and  _24
REMARK   11  A    between atoms: _23  and  _26
REMARK   12  A    between atoms: _26  and  _27
REMARK   13  A    between atoms: _27  and  _28
REMARK   14  A    between atoms: _28  and  _29
REMARK   15  A    between atoms: _29  and  _30
REMARK   16  A    between atoms: _34  and  _36
REMARK   17  A    between atoms: _36  and  _37
REMARK   18  A    between atoms: _36  and  _39
REMARK   19  A    between atoms: _39  and  _40
REMARK   20  A    between atoms: _46  and  _48
REMARK   21  A    between atoms: _48  and  _49
REMARK   22  A    between atoms: _48  and  _51
REMARK   23  A    between atoms: _51  and  _52
REMARK   24  A    between atoms: _55  and  _57
REMARK   25  A    between atoms: _57  and  _58
REMARK   26  A    between atoms: _57  and  _60
REMARK   27  A    between atoms: _60  and  _61
REMARK   28  A    between atoms: _61  and  _63
REMARK   29  A    between atoms: _63  and  ZN_316
REMARK   30  A    between atoms: _64  and  _66
REMARK   31  A    between atoms: _66  and  _67
REMARK   32  A    between atoms: _66  and  _69
REMARK   33  A    between atoms: _69  and  _70
REMARK   34  A    between atoms: _72  and  _74
REMARK   35  A    between atoms: _74  and  _75
REMARK   36  A    between atoms: _74  and  _77
REMARK   37  A    between atoms: _77  and  _78
REMARK   38  A    between atoms: _78  and  _79
REMARK   39  A    between atoms: _82  and  _84
REMARK   40  A    between atoms: _84  and  _85
REMARK   41  A    between atoms: _84  and  _87
REMARK   42  A    between atoms: _87  and  _88
REMARK   43  A    between atoms: _88  and  _89
REMARK   44  A    between atoms: _89  and  _91
REMARK   45  A    between atoms: _91  and  ZN_316
REMARK   46  A    between atoms: _92  and  _94
REMARK   47  A    between atoms: _94  and  _95
REMARK   48  A    between atoms: _98  and  _100
REMARK   49  A    between atoms: _100  and  _101
REMARK   50  A    between atoms: _100  and  _103
REMARK   51  A    between atoms: _103  and  _104
REMARK   52  A    between atoms: _114  and  _116
REMARK   53  A    between atoms: _116  and  _117
REMARK   54  A    between atoms: _116  and  _119
REMARK   55  A    between atoms: _119  and  _120
REMARK   56  A    between atoms: _122  and  _124
REMARK   57  A    between atoms: _124  and  _125
REMARK   58  A    between atoms: _124  and  _127
REMARK   59  A    between atoms: _127  and  _128
REMARK   60  A    between atoms: _131  and  _133
REMARK   61  A    between atoms: _133  and  _134
REMARK   62  A    between atoms: _133  and  _136
REMARK   63  A    between atoms: _136  and  _137
REMARK   64  A    between atoms: _140  and  _142
REMARK   65  A    between atoms: _142  and  _143
REMARK   66  A    between atoms: _142  and  _145
REMARK   67  A    between atoms: _145  and  _146
REMARK   68  A    between atoms: _149  and  _151
REMARK   69  A    between atoms: _151  and  _152
REMARK   70  A    between atoms: _151  and  _154
REMARK   71  A    between atoms: _154  and  _155
REMARK   72  A    between atoms: _158  and  _160
REMARK   73  A    between atoms: _160  and  _161
REMARK   74  A    between atoms: _160  and  _163
REMARK   75  A    between atoms: _163  and  _164
REMARK   76  A    between atoms: _167  and  _169
REMARK   77  A    between atoms: _169  and  _170
REMARK   78  A    between atoms: _169  and  _172
REMARK   79  A    between atoms: _172  and  _173
REMARK   80  A    between atoms: _178  and  _179
REMARK   81  A    between atoms: _181  and  _183
REMARK   82  A    between atoms: _183  and  _184
REMARK   83  A    between atoms: _183  and  _186
REMARK   84  A    between atoms: _189  and  _191
REMARK   85  A    between atoms: _191  and  _192
REMARK   86  A    between atoms: _191  and  _194
REMARK   87  A    between atoms: _194  and  _195
REMARK   88  A    between atoms: _198  and  _200
REMARK   89  A    between atoms: _200  and  _201
REMARK   90  A    between atoms: _200  and  _203
REMARK   91  A    between atoms: _203  and  _204
REMARK   92  A    between atoms: _204  and  _205
REMARK   93  A    between atoms: _210  and  _212
REMARK   94  A    between atoms: _212  and  _213
REMARK   95  A    between atoms: _212  and  _215
REMARK   96  A    between atoms: _215  and  _216
REMARK   97  A    between atoms: _219  and  _221
REMARK   98  A    between atoms: _221  and  _222
REMARK   99  A    between atoms: _221  and  _224
REMARK  100  A    between atoms: _224  and  _225
REMARK  101  A    between atoms: _228  and  _230
REMARK  102  A    between atoms: _230  and  _231
REMARK  103  A    between atoms: _230  and  _233
REMARK  104  A    between atoms: _233  and  _234
REMARK  105  A    between atoms: _239  and  _241
REMARK  106  A    between atoms: _241  and  _242
REMARK  107  A    between atoms: _241  and  _244
REMARK  108  A    between atoms: _244  and  _245
REMARK  109  A    between atoms: _248  and  _250
REMARK  110  A    between atoms: _250  and  _251
REMARK  111  A    between atoms: _250  and  _253
REMARK  112  A    between atoms: _253  and  _254
REMARK  113  A    between atoms: _259  and  _261
REMARK  114  A    between atoms: _261  and  _262
REMARK  115  A    between atoms: _261  and  _264
REMARK  116  A    between atoms: _264  and  _265
REMARK  117  A    between atoms: _268  and  _270
REMARK  118  A    between atoms: _270  and  _271
REMARK  119  A    between atoms: _270  and  _273
REMARK  120  A    between atoms: _273  and  _274
REMARK  121  A    between atoms: _280  and  _282
REMARK  122  A    between atoms: _282  and  _283
REMARK  123  A    between atoms: _282  and  _285
REMARK  124  A    between atoms: _285  and  _286
REMARK  125  A    between atoms: _296  and  _298
REMARK  126  A    between atoms: _298  and  _299
REMARK  127  A    between atoms: _298  and  _301
REMARK  128  A    between atoms: _301  and  _302
REMARK  129  A    between atoms: _306  and  ZN_316
REMARK  130  A    between atoms: _307  and  _309
REMARK  131  A    between atoms: _309  and  _310
REMARK  132  A    between atoms: _309  and  _312
REMARK  133  A    between atoms: _312  and  _313
REMARK                            x       y       z     vdW  Elec       q    Type
REMARK                         _______ _______ _______ _____ _____    ______ ____
ROOT
ATOM      1  O   HOH     1     -14.245   3.397  26.647  0.00  0.00    +0.000 OA
ENDROOT
TORSDOF 0
REMARK  Name = ../refined-set-2016/2afw/2afw_pocket.pdb
REMARK  133 active torsions:
REMARK  status: ('A' for Active; 'I' for Inactive)
REMARK    1  A    between atoms: _1  and  _3
REMARK    2  A    between atoms: _3  and  _4
REMARK    3  A    between atoms: _3  and  _6
REMARK    4  A    between atoms: _6  and  _7
REMARK    5  A    between atoms: _12  and  _14
REMARK    6  A    between atoms: _14  and  _15
REMARK    7  A    between atoms: _14  and  _17
REMARK    8  A    between atoms: _17  and  _18
REMARK    9  A    between atoms: _21  and  _23
REMARK   10  A    between atoms: _23  and  _24
REMARK   11  A    between atoms: _23  and  _26
REMARK   12  A    between atoms: _26  and  _27
REMARK   13  A    between atoms: _27  and  _28
REMARK   14  A    between atoms: _28  and  _29
REMARK   15  A    between atoms: _29  and  _30
REMARK   16  A    between atoms: _34  and  _36
REMARK   17  A    between atoms: _36  and  _37
REMARK   18  A    between atoms: _36  and  _39
REMARK   19  A    between atoms: _39  and  _40
REMARK   20  A    between atoms: _46  and  _48
REMARK   21  A    between atoms: _48  and  _49
REMARK   22  A    between atoms: _48  and  _51
REMARK   23  A    between atoms: _51  and  _52
REMARK   24  A    between atoms: _55  and  _57
REMARK   25  A    between atoms: _57  and  _58
REMARK   26  A    between atoms: _57  and  _60
REMARK   27  A    between atoms: _60  and  _61
REMARK   28  A    between atoms: _61  and  _63
REMARK   29  A    between atoms: _63  and  ZN_316
REMARK   30  A    between atoms: _64  and  _66
REMARK   31  A    between atoms: _66  and  _67
REMARK   32  A    between atoms: _66  and  _69
REMARK   33  A    between atoms: _69  and  _70
REMARK   34  A    between atoms: _72  and  _74
REMARK   35  A    between atoms: _74  and  _75
REMARK   36  A    between atoms: _74  and  _77
REMARK   37  A    between atoms: _77  and  _78
REMARK   38  A    between atoms: _78  and  _79
REMARK   39  A    between atoms: _82  and  _84
REMARK   40  A    between atoms: _84  and  _85
REMARK   41  A    between atoms: _84  and  _87
REMARK   42  A    between atoms: _87  and  _88
REMARK   43  A    between atoms: _88  and  _89
REMARK   44  A    between atoms: _89  and  _91
REMARK   45  A    between atoms: _91  and  ZN_316
REMARK   46  A    between atoms: _92  and  _94
REMARK   47  A    between atoms: _94  and  _95
REMARK   48  A    between atoms: _98  and  _100
REMARK   49  A    between atoms: _100  and  _101
REMARK   50  A    between atoms: _100  and  _103
REMARK   51  A    between atoms: _103  and  _104
REMARK   52  A    between atoms: _114  and  _116
REMARK   53  A    between atoms: _116  and  _117
REMARK   54  A    between atoms: _116  and  _119
REMARK   55  A    between atoms: _119  and  _120
REMARK   56  A    between atoms: _122  and  _124
REMARK   57  A    between atoms: _124  and  _125
REMARK   58  A    between atoms: _124  and  _127
REMARK   59  A    between atoms: _127  and  _128
REMARK   60  A    between atoms: _131  and  _133
REMARK   61  A    between atoms: _133  and  _134
REMARK   62  A    between atoms: _133  and  _136
REMARK   63  A    between atoms: _136  and  _137
REMARK   64  A    between atoms: _140  and  _142
REMARK   65  A    between atoms: _142  and  _143
REMARK   66  A    between atoms: _142  and  _145
REMARK   67  A    between atoms: _145  and  _146
REMARK   68  A    between atoms: _149  and  _151
REMARK   69  A    between atoms: _151  and  _152
REMARK   70  A    between atoms: _151  and  _154
REMARK   71  A    between atoms: _154  and  _155
REMARK   72  A    between atoms: _158  and  _160
REMARK   73  A    between atoms: _160  and  _161
REMARK   74  A    between atoms: _160  and  _163
REMARK   75  A    between atoms: _163  and  _164
REMARK   76  A    between atoms: _167  and  _169
REMARK   77  A    between atoms: _169  and  _170
REMARK   78  A    between atoms: _169  and  _172
REMARK   79  A    between atoms: _172  and  _173
REMARK   80  A    between atoms: _178  and  _179
REMARK   81  A    between atoms: _181  and  _183
REMARK   82  A    between atoms: _183  and  _184
REMARK   83  A    between atoms: _183  and  _186
REMARK   84  A    between atoms: _189  and  _191
REMARK   85  A    between atoms: _191  and  _192
REMARK   86  A    between atoms: _191  and  _194
REMARK   87  A    between atoms: _194  and  _195
REMARK   88  A    between atoms: _198  and  _200
REMARK   89  A    between atoms: _200  and  _201
REMARK   90  A    between atoms: _200  and  _203
REMARK   91  A    between atoms: _203  and  _204
REMARK   92  A    between atoms: _204  and  _205
REMARK   93  A    between atoms: _210  and  _212
REMARK   94  A    between atoms: _212  and  _213
REMARK   95  A    between atoms: _212  and  _215
REMARK   96  A    between atoms: _215  and  _216
REMARK   97  A    between atoms: _219  and  _221
REMARK   98  A    between atoms: _221  and  _222
REMARK   99  A    between atoms: _221  and  _224
REMARK  100  A    between atoms: _224  and  _225
REMARK  101  A    between atoms: _228  and  _230
REMARK  102  A    between atoms: _230  and  _231
REMARK  103  A    between atoms: _230  and  _233
REMARK  104  A    between atoms: _233  and  _234
REMARK  105  A    between atoms: _239  and  _241
REMARK  106  A    between atoms: _241  and  _242
REMARK  107  A    between atoms: _241  and  _244
REMARK  108  A    between atoms: _244  and  _245
REMARK  109  A    between atoms: _248  and  _250
REMARK  110  A    between atoms: _250  and  _251
REMARK  111  A    between atoms: _250  and  _253
REMARK  112  A    between atoms: _253  and  _254
REMARK  113  A    between atoms: _259  and  _261
REMARK  114  A    between atoms: _261  and  _262
REMARK  115  A    between atoms: _261  and  _264
REMARK  116  A    between atoms: _264  and  _265
REMARK  117  A    between atoms: _268  and  _270
REMARK  118  A    between atoms: _270  and  _271
REMARK  119  A    between atoms: _270  and  _273
REMARK  120  A    between atoms: _273  and  _274
REMARK  121  A    between atoms: _280  and  _282
REMARK  122  A    between atoms: _282  and  _283
REMARK  123  A    between atoms: _282  and  _285
REMARK  124  A    between atoms: _285  and  _286
REMARK  125  A    between atoms: _296  and  _298
REMARK  126  A    between atoms: _298  and  _299
REMARK  127  A    between atoms: _298  and  _301
REMARK  128  A    between atoms: _301  and  _302
REMARK  129  A    between atoms: _306  and  ZN_316
REMARK  130  A    between atoms: _307  and  _309
REMARK  131  A    between atoms: _309  and  _310
REMARK  132  A    between atoms: _309  and  _312
REMARK  133  A    between atoms: _312  and  _313
REMARK                            x       y       z     vdW  Elec       q    Type
REMARK                         _______ _______ _______ _____ _____    ______ ____
ROOT
ATOM      1  O   HOH     1     -11.165   5.647  13.835  0.00  0.00    +0.000 OA
ENDROOT
TORSDOF 0
REMARK  Name = ../refined-set-2016/2afw/2afw_pocket.pdb
REMARK  133 active torsions:
REMARK  status: ('A' for Active; 'I' for Inactive)
REMARK    1  A    between atoms: _1  and  _3
REMARK    2  A    between atoms: _3  and  _4
REMARK    3  A    between atoms: _3  and  _6
REMARK    4  A    between atoms: _6  and  _7
REMARK    5  A    between atoms: _12  and  _14
REMARK    6  A    between atoms: _14  and  _15
REMARK    7  A    between atoms: _14  and  _17
REMARK    8  A    between atoms: _17  and  _18
REMARK    9  A    between atoms: _21  and  _23
REMARK   10  A    between atoms: _23  and  _24
REMARK   11  A    between atoms: _23  and  _26
REMARK   12  A    between atoms: _26  and  _27
REMARK   13  A    between atoms: _27  and  _28
REMARK   14  A    between atoms: _28  and  _29
REMARK   15  A    between atoms: _29  and  _30
REMARK   16  A    between atoms: _34  and  _36
REMARK   17  A    between atoms: _36  and  _37
REMARK   18  A    between atoms: _36  and  _39
REMARK   19  A    between atoms: _39  and  _40
REMARK   20  A    between atoms: _46  and  _48
REMARK   21  A    between atoms: _48  and  _49
REMARK   22  A    between atoms: _48  and  _51
REMARK   23  A    between atoms: _51  and  _52
REMARK   24  A    between atoms: _55  and  _57
REMARK   25  A    between atoms: _57  and  _58
REMARK   26  A    between atoms: _57  and  _60
REMARK   27  A    between atoms: _60  and  _61
REMARK   28  A    between atoms: _61  and  _63
REMARK   29  A    between atoms: _63  and  ZN_316
REMARK   30  A    between atoms: _64  and  _66
REMARK   31  A    between atoms: _66  and  _67
REMARK   32  A    between atoms: _66  and  _69
REMARK   33  A    between atoms: _69  and  _70
REMARK   34  A    between atoms: _72  and  _74
REMARK   35  A    between atoms: _74  and  _75
REMARK   36  A    between atoms: _74  and  _77
REMARK   37  A    between atoms: _77  and  _78
REMARK   38  A    between atoms: _78  and  _79
REMARK   39  A    between atoms: _82  and  _84
REMARK   40  A    between atoms: _84  and  _85
REMARK   41  A    between atoms: _84  and  _87
REMARK   42  A    between atoms: _87  and  _88
REMARK   43  A    between atoms: _88  and  _89
REMARK   44  A    between atoms: _89  and  _91
REMARK   45  A    between atoms: _91  and  ZN_316
REMARK   46  A    between atoms: _92  and  _94
REMARK   47  A    between atoms: _94  and  _95
REMARK   48  A    between atoms: _98  and  _100
REMARK   49  A    between atoms: _100  and  _101
REMARK   50  A    between atoms: _100  and  _103
REMARK   51  A    between atoms: _103  and  _104
REMARK   52  A    between atoms: _114  and  _116
REMARK   53  A    between atoms: _116  and  _117
REMARK   54  A    between atoms: _116  and  _119
REMARK   55  A    between atoms: _119  and  _120
REMARK   56  A    between atoms: _122  and  _124
REMARK   57  A    between atoms: _124  and  _125
REMARK   58  A    between atoms: _124  and  _127
REMARK   59  A    between atoms: _127  and  _128
REMARK   60  A    between atoms: _131  and  _133
REMARK   61  A    between atoms: _133  and  _134
REMARK   62  A    between atoms: _133  and  _136
REMARK   63  A    between atoms: _136  and  _137
REMARK   64  A    between atoms: _140  and  _142
REMARK   65  A    between atoms: _142  and  _143
REMARK   66  A    between atoms: _142  and  _145
REMARK   67  A    between atoms: _145  and  _146
REMARK   68  A    between atoms: _149  and  _151
REMARK   69  A    between atoms: _151  and  _152
REMARK   70  A    between atoms: _151  and  _154
REMARK   71  A    between atoms: _154  and  _155
REMARK   72  A    between atoms: _158  and  _160
REMARK   73  A    between atoms: _160  and  _161
REMARK   74  A    between atoms: _160  and  _163
REMARK   75  A    between atoms: _163  and  _164
REMARK   76  A    between atoms: _167  and  _169
REMARK   77  A    between atoms: _169  and  _170
REMARK   78  A    between atoms: _169  and  _172
REMARK   79  A    between atoms: _172  and  _173
REMARK   80  A    between atoms: _178  and  _179
REMARK   81  A    between atoms: _181  and  _183
REMARK   82  A    between atoms: _183  and  _184
REMARK   83  A    between atoms: _183  and  _186
REMARK   84  A    between atoms: _189  and  _191
REMARK   85  A    between atoms: _191  and  _192
REMARK   86  A    between atoms: _191  and  _194
REMARK   87  A    between atoms: _194  and  _195
REMARK   88  A    between atoms: _198  and  _200
REMARK   89  A    between atoms: _200  and  _201
REMARK   90  A    between atoms: _200  and  _203
REMARK   91  A    between atoms: _203  and  _204
REMARK   92  A    between atoms: _204  and  _205
REMARK   93  A    between atoms: _210  and  _212
REMARK   94  A    between atoms: _212  and  _213
REMARK   95  A    between atoms: _212  and  _215
REMARK   96  A    between atoms: _215  and  _216
REMARK   97  A    between atoms: _219  and  _221
REMARK   98  A    between atoms: _221  and  _222
REMARK   99  A    between atoms: _221  and  _224
REMARK  100  A    between atoms: _224  and  _225
REMARK  101  A    between atoms: _228  and  _230
REMARK  102  A    between atoms: _230  and  _231
REMARK  103  A    between atoms: _230  and  _233
REMARK  104  A    between atoms: _233  and  _234
REMARK  105  A    between atoms: _239  and  _241
REMARK  106  A    between atoms: _241  and  _242
REMARK  107  A    between atoms: _241  and  _244
REMARK  108  A    between atoms: _244  and  _245
REMARK  109  A    between atoms: _248  and  _250
REMARK  110  A    between atoms: _250  and  _251
REMARK  111  A    between atoms: _250  and  _253
REMARK  112  A    between atoms: _253  and  _254
REMARK  113  A    between atoms: _259  and  _261
REMARK  114  A    between atoms: _261  and  _262
REMARK  115  A    between atoms: _261  and  _264
REMARK  116  A    between atoms: _264  and  _265
REMARK  117  A    between atoms: _268  and  _270
REMARK  118  A    between atoms: _270  and  _271
REMARK  119  A    between atoms: _270  and  _273
REMARK  120  A    between atoms: _273  and  _274
REMARK  121  A    between atoms: _280  and  _282
REMARK  122  A    between atoms: _282  and  _283
REMARK  123  A    between atoms: _282  and  _285
REMARK  124  A    between atoms: _285  and  _286
REMARK  125  A    between atoms: _296  and  _298
REMARK  126  A    between atoms: _298  and  _299
REMARK  127  A    between atoms: _298  and  _301
REMARK  128  A    between atoms: _301  and  _302
REMARK  129  A    between atoms: _306  and  ZN_316
REMARK  130  A    between atoms: _307  and  _309
REMARK  131  A    between atoms: _309  and  _310
REMARK  132  A    between atoms: _309  and  _312
REMARK  133  A    between atoms: _312  and  _313
REMARK                            x       y       z     vdW  Elec       q    Type
REMARK                         _______ _______ _______ _____ _____    ______ ____
ROOT
ATOM      1  O   HOH     1      -9.812   2.004  29.247  0.00  0.00    +0.000 OA
ENDROOT
TORSDOF 0
