REMARK  Name = ../refined-set-2016/4dsy/4dsy_pocket.pdb
REMARK  107 active torsions:
REMARK  status: ('A' for Active; 'I' for Inactive)
REMARK    1  A    between atoms: _1  and  _3
REMARK    2  A    between atoms: _3  and  _4
REMARK    3  A    between atoms: _3  and  _6
REMARK    4  A    between atoms: _6  and  _7
REMARK    5  A    between atoms: _7  and  _9
REMARK    6  A    between atoms: _10  and  _12
REMARK    7  A    between atoms: _12  and  _13
REMARK    8  A    between atoms: _15  and  _17
REMARK    9  A    between atoms: _17  and  _18
REMARK   10  A    between atoms: _17  and  _20
REMARK   11  A    between atoms: _20  and  _21
REMARK   12  A    between atoms: _21  and  _23
REMARK   13  A    between atoms: _23  and  ZN_257
REMARK   14  A    between atoms: _24  and  _26
REMARK   15  A    between atoms: _26  and  _27
REMARK   16  A    between atoms: _26  and  _29
REMARK   17  A    between atoms: _29  and  _30
REMARK   18  A    between atoms: _35  and  _36
REMARK   19  A    between atoms: _38  and  _40
REMARK   20  A    between atoms: _40  and  _41
REMARK   21  A    between atoms: _40  and  _43
REMARK   22  A    between atoms: _43  and  _44
REMARK   23  A    between atoms: _47  and  _49
REMARK   24  A    between atoms: _49  and  _50
REMARK   25  A    between atoms: _49  and  _52
REMARK   26  A    between atoms: _52  and  _53
REMARK   27  A    between atoms: _53  and  _54
REMARK   28  A    between atoms: _54  and  _55
REMARK   29  A    between atoms: _64  and  _66
REMARK   30  A    between atoms: _66  and  _67
REMARK   31  A    between atoms: _69  and  _71
REMARK   32  A    between atoms: _71  and  _72
REMARK   33  A    between atoms: _71  and  _74
REMARK   34  A    between atoms: _74  and  _75
REMARK   35  A    between atoms: _75  and  _76
REMARK   36  A    between atoms: _75  and  _77
REMARK   37  A    between atoms: _76  and  ZN_257
REMARK   38  A    between atoms: _80  and  _82
REMARK   39  A    between atoms: _82  and  _83
REMARK   40  A    between atoms: _82  and  _85
REMARK   41  A    between atoms: _85  and  _86
REMARK   42  A    between atoms: _91  and  _93
REMARK   43  A    between atoms: _93  and  _94
REMARK   44  A    between atoms: _93  and  _96
REMARK   45  A    between atoms: _96  and  _97
REMARK   46  A    between atoms: _97  and  _98
REMARK   47  A    between atoms: _101  and  _103
REMARK   48  A    between atoms: _103  and  _104
REMARK   49  A    between atoms: _103  and  _106
REMARK   50  A    between atoms: _106  and  _107
REMARK   51  A    between atoms: _112  and  _113
REMARK   52  A    between atoms: _115  and  _117
REMARK   53  A    between atoms: _117  and  _118
REMARK   54  A    between atoms: _117  and  _120
REMARK   55  A    between atoms: _120  and  _121
REMARK   56  A    between atoms: _125  and  ZN_257
REMARK   57  A    between atoms: _126  and  _128
REMARK   58  A    between atoms: _128  and  _129
REMARK   59  A    between atoms: _128  and  _131
REMARK   60  A    between atoms: _131  and  _132
REMARK   61  A    between atoms: _137  and  _139
REMARK   62  A    between atoms: _139  and  _140
REMARK   63  A    between atoms: _139  and  _142
REMARK   64  A    between atoms: _142  and  _143
REMARK   65  A    between atoms: _148  and  _150
REMARK   66  A    between atoms: _150  and  _151
REMARK   67  A    between atoms: _150  and  _153
REMARK   68  A    between atoms: _153  and  _154
REMARK   69  A    between atoms: _154  and  _155
REMARK   70  A    between atoms: _158  and  _160
REMARK   71  A    between atoms: _160  and  _161
REMARK   72  A    between atoms: _163  and  _165
REMARK   73  A    between atoms: _165  and  _166
REMARK   74  A    between atoms: _165  and  _168
REMARK   75  A    between atoms: _168  and  _169
REMARK   76  A    between atoms: _170  and  ZN_257
REMARK   77  A    between atoms: _174  and  _176
REMARK   78  A    between atoms: _176  and  _177
REMARK   79  A    between atoms: _176  and  _179
REMARK   80  A    between atoms: _182  and  _184
REMARK   81  A    between atoms: _184  and  _185
REMARK   82  A    between atoms: _184  and  _187
REMARK   83  A    between atoms: _187  and  _188
REMARK   84  A    between atoms: _193  and  _195
REMARK   85  A    between atoms: _195  and  _196
REMARK   86  A    between atoms: _198  and  _200
REMARK   87  A    between atoms: _200  and  _201
REMARK   88  A    between atoms: _200  and  _203
REMARK   89  A    between atoms: _203  and  _204
REMARK   90  A    between atoms: _209  and  _211
REMARK   91  A    between atoms: _211  and  _212
REMARK   92  A    between atoms: _211  and  _214
REMARK   93  A    between atoms: _214  and  _215
REMARK   94  A    between atoms: _220  and  _221
REMARK   95  A    between atoms: _223  and  _225
REMARK   96  A    between atoms: _225  and  _226
REMARK   97  A    between atoms: _225  and  _228
REMARK   98  A    between atoms: _231  and  _233
REMARK   99  A    between atoms: _233  and  _234
REMARK  100  A    between atoms: _233  and  _236
REMARK  101  A    between atoms: _236  and  _237
REMARK  102  A    between atoms: _240  and  _242
REMARK  103  A    between atoms: _242  and  _243
REMARK  104  A    between atoms: _242  and  _245
REMARK  105  A    between atoms: _245  and  _246
REMARK  106  A    between atoms: _246  and  _247
REMARK  107  A    between atoms: _247  and  _248
REMARK                            x       y       z     vdW  Elec       q    Type
REMARK                         _______ _______ _______ _____ _____    ______ ____
ROOT
ATOM      1  C   UNK     1     -70.373  30.099 -33.161  0.00  0.00    +0.000 C 
ENDROOT
BRANCH   1   2
ATOM      2  N   UNK     1     -69.774  28.905 -32.583  0.00  0.00    +0.000 NA
ATOM      3  H   UNK     1     -68.739  28.809 -32.553  0.00  0.00    +0.000 HD
ENDBRANCH   1   2
BRANCH   1   4
ATOM      4  C   UNK     1     -71.242  30.780 -32.103  0.00  0.00    +0.000 C 
ATOM      5  O   UNK     1     -72.437  31.007 -32.309  0.00  0.00    +0.000 OA
ENDBRANCH   1   4
BRANCH   1   6
ATOM      6  C   UNK     1     -71.211  29.707 -34.392  0.00  0.00    +0.000 C 
BRANCH   6   7
ATOM      7  C   UNK     1     -70.408  28.891 -35.411  0.00  0.00    +0.000 C 
ATOM      8  O   UNK     1     -70.109  27.710 -35.139  0.00  0.00    +0.000 OA
BRANCH   7   9
ATOM      9  O   UNK     1     -70.051  29.421 -36.479  0.00  0.00    +0.000 OA
ATOM     10 FE   UNK     1     -70.603  31.389 -37.304  0.00  0.00    +0.000 Fe
ENDBRANCH   7   9
ENDBRANCH   6   7
ENDBRANCH   1   6
TORSDOF 5
REMARK  Name = ../refined-set-2016/4dsy/4dsy_pocket.pdb
REMARK  107 active torsions:
REMARK  status: ('A' for Active; 'I' for Inactive)
REMARK    1  A    between atoms: _1  and  _3
REMARK    2  A    between atoms: _3  and  _4
REMARK    3  A    between atoms: _3  and  _6
REMARK    4  A    between atoms: _6  and  _7
REMARK    5  A    between atoms: _7  and  _9
REMARK    6  A    between atoms: _10  and  _12
REMARK    7  A    between atoms: _12  and  _13
REMARK    8  A    between atoms: _15  and  _17
REMARK    9  A    between atoms: _17  and  _18
REMARK   10  A    between atoms: _17  and  _20
REMARK   11  A    between atoms: _20  and  _21
REMARK   12  A    between atoms: _21  and  _23
REMARK   13  A    between atoms: _23  and  ZN_257
REMARK   14  A    between atoms: _24  and  _26
REMARK   15  A    between atoms: _26  and  _27
REMARK   16  A    between atoms: _26  and  _29
REMARK   17  A    between atoms: _29  and  _30
REMARK   18  A    between atoms: _35  and  _36
REMARK   19  A    between atoms: _38  and  _40
REMARK   20  A    between atoms: _40  and  _41
REMARK   21  A    between atoms: _40  and  _43
REMARK   22  A    between atoms: _43  and  _44
REMARK   23  A    between atoms: _47  and  _49
REMARK   24  A    between atoms: _49  and  _50
REMARK   25  A    between atoms: _49  and  _52
REMARK   26  A    between atoms: _52  and  _53
REMARK   27  A    between atoms: _53  and  _54
REMARK   28  A    between atoms: _54  and  _55
REMARK   29  A    between atoms: _64  and  _66
REMARK   30  A    between atoms: _66  and  _67
REMARK   31  A    between atoms: _69  and  _71
REMARK   32  A    between atoms: _71  and  _72
REMARK   33  A    between atoms: _71  and  _74
REMARK   34  A    between atoms: _74  and  _75
REMARK   35  A    between atoms: _75  and  _76
REMARK   36  A    between atoms: _75  and  _77
REMARK   37  A    between atoms: _76  and  ZN_257
REMARK   38  A    between atoms: _80  and  _82
REMARK   39  A    between atoms: _82  and  _83
REMARK   40  A    between atoms: _82  and  _85
REMARK   41  A    between atoms: _85  and  _86
REMARK   42  A    between atoms: _91  and  _93
REMARK   43  A    between atoms: _93  and  _94
REMARK   44  A    between atoms: _93  and  _96
REMARK   45  A    between atoms: _96  and  _97
REMARK   46  A    between atoms: _97  and  _98
REMARK   47  A    between atoms: _101  and  _103
REMARK   48  A    between atoms: _103  and  _104
REMARK   49  A    between atoms: _103  and  _106
REMARK   50  A    between atoms: _106  and  _107
REMARK   51  A    between atoms: _112  and  _113
REMARK   52  A    between atoms: _115  and  _117
REMARK   53  A    between atoms: _117  and  _118
REMARK   54  A    between atoms: _117  and  _120
REMARK   55  A    between atoms: _120  and  _121
REMARK   56  A    between atoms: _125  and  ZN_257
REMARK   57  A    between atoms: _126  and  _128
REMARK   58  A    between atoms: _128  and  _129
REMARK   59  A    between atoms: _128  and  _131
REMARK   60  A    between atoms: _131  and  _132
REMARK   61  A    between atoms: _137  and  _139
REMARK   62  A    between atoms: _139  and  _140
REMARK   63  A    between atoms: _139  and  _142
REMARK   64  A    between atoms: _142  and  _143
REMARK   65  A    between atoms: _148  and  _150
REMARK   66  A    between atoms: _150  and  _151
REMARK   67  A    between atoms: _150  and  _153
REMARK   68  A    between atoms: _153  and  _154
REMARK   69  A    between atoms: _154  and  _155
REMARK   70  A    between atoms: _158  and  _160
REMARK   71  A    between atoms: _160  and  _161
REMARK   72  A    between atoms: _163  and  _165
REMARK   73  A    between atoms: _165  and  _166
REMARK   74  A    between atoms: _165  and  _168
REMARK   75  A    between atoms: _168  and  _169
REMARK   76  A    between atoms: _170  and  ZN_257
REMARK   77  A    between atoms: _174  and  _176
REMARK   78  A    between atoms: _176  and  _177
REMARK   79  A    between atoms: _176  and  _179
REMARK   80  A    between atoms: _182  and  _184
REMARK   81  A    between atoms: _184  and  _185
REMARK   82  A    between atoms: _184  and  _187
REMARK   83  A    between atoms: _187  and  _188
REMARK   84  A    between atoms: _193  and  _195
REMARK   85  A    between atoms: _195  and  _196
REMARK   86  A    between atoms: _198  and  _200
REMARK   87  A    between atoms: _200  and  _201
REMARK   88  A    between atoms: _200  and  _203
REMARK   89  A    between atoms: _203  and  _204
REMARK   90  A    between atoms: _209  and  _211
REMARK   91  A    between atoms: _211  and  _212
REMARK   92  A    between atoms: _211  and  _214
REMARK   93  A    between atoms: _214  and  _215
REMARK   94  A    between atoms: _220  and  _221
REMARK   95  A    between atoms: _223  and  _225
REMARK   96  A    between atoms: _225  and  _226
REMARK   97  A    between atoms: _225  and  _228
REMARK   98  A    between atoms: _231  and  _233
REMARK   99  A    between atoms: _233  and  _234
REMARK  100  A    between atoms: _233  and  _236
REMARK  101  A    between atoms: _236  and  _237
REMARK  102  A    between atoms: _240  and  _242
REMARK  103  A    between atoms: _242  and  _243
REMARK  104  A    between atoms: _242  and  _245
REMARK  105  A    between atoms: _245  and  _246
REMARK  106  A    between atoms: _246  and  _247
REMARK  107  A    between atoms: _247  and  _248
REMARK                            x       y       z     vdW  Elec       q    Type
REMARK                         _______ _______ _______ _____ _____    ______ ____
ROOT
ATOM      1 ZN   UNK A   2     -68.096  30.409 -39.401  0.00  0.00    +0.000 Zn
ENDROOT
BRANCH   1   2
ATOM      2  N   UNK A   2     -68.272  29.249 -41.249  0.00  0.00    +0.000 N 
ATOM      3  C   UNK A   2     -68.583  27.913 -41.383  0.00  0.00    +0.000 A 
ATOM      4  C   UNK A   2     -68.603  27.667 -42.717  0.00  0.00    +0.000 A 
ATOM      5  N   UNK A   2     -68.323  28.855 -43.354  0.00  0.00    +0.000 NA
ATOM      6  C   UNK A   2     -68.135  29.795 -42.444  0.00  0.00    +0.000 A 
BRANCH   3   7
ATOM      7  C   UNK A   2     -68.783  26.997 -40.208  0.00  0.00    +0.000 C 
BRANCH   7   8
ATOM      8  C   UNK A   2     -69.766  27.520 -39.165  0.00  0.00    +0.000 C 
BRANCH   8   9
ATOM      9  N   UNK A   2     -69.635  26.767 -37.925  0.00  0.00    +0.000 N 
ATOM     10  H   UNK A   2     -69.463  27.292 -37.044  0.00  0.00    +0.000 HD
ATOM     11  C   UNK A   1     -69.725  25.435 -37.864  0.00  0.00    +0.000 C 
ATOM     12  O   UNK A   1     -70.023  24.723 -38.821  0.00  0.00    +0.000 OA
BRANCH  11  13
ATOM     13  C   UNK A   1     -69.440  24.797 -36.523  0.00  0.00    +0.000 C 
BRANCH  13  14
ATOM     14  N   UNK A   1     -68.408  23.792 -36.707  0.00  0.00    +0.000 NA
ATOM     15  H   UNK A   1     -67.535  24.057 -37.207  0.00  0.00    +0.000 HD
ENDBRANCH  13  14
ENDBRANCH  11  13
ENDBRANCH   8   9
BRANCH   8  16
ATOM     16  C   UNK A   2     -71.225  27.546 -39.685  0.00  0.00    +0.000 C 
ATOM     17  N   VAL A   3     -71.864  26.387 -39.806  0.00  0.00    +0.000 N 
ATOM     18  H   VAL A   3     -71.352  25.491 -39.678  0.00  0.00    +0.000 HD
ATOM     19  O   UNK A   2     -71.779  28.618 -39.949  0.00  0.00    +0.000 OA
BRANCH  17  20
ATOM     20  CA  VAL A   3     -73.288  26.379 -40.120  0.00  0.00    +0.000 C 
BRANCH  20  21
ATOM     21  C   VAL A   3     -74.105  26.605 -38.845  0.00  0.00    +0.000 C 
ATOM     22  O   VAL A   3     -73.851  25.981 -37.828  0.00  0.00    +0.000 OA
ATOM     23  N   HIS A   4     -75.066  27.519 -38.881  0.00  0.00    +0.000 N 
ATOM     24  H   HIS A   4     -75.299  27.994 -39.776  0.00  0.00    +0.000 HD
BRANCH  23  25
ATOM     25  CA  HIS A   4     -75.796  27.857 -37.663  0.00  0.00    +0.000 C 
BRANCH  25  26
ATOM     26  C   HIS A   4     -76.999  26.946 -37.442  0.00  0.00    +0.000 C 
ATOM     27  O   HIS A   4     -78.159  27.354 -37.538  0.00  0.00    +0.000 OA
ENDBRANCH  25  26
BRANCH  25  28
ATOM     28  CB  HIS A   4     -76.177  29.333 -37.667  0.00  0.00    +0.000 C 
BRANCH  28  29
ATOM     29  CG  HIS A   4     -74.998  30.243 -37.799  0.00  0.00    +0.000 A 
ATOM     30  CD2 HIS A   4     -73.700  30.069 -37.452  0.00  0.00    +0.000 A 
ATOM     31  NE2 HIS A   4     -73.035  31.221 -37.793  0.00  0.00    +0.000 NA
ATOM     32  CE1 HIS A   4     -73.888  32.063 -38.347  0.00  0.00    +0.000 A 
ATOM     33  ND1 HIS A   4     -75.081  31.496 -38.365  0.00  0.00    +0.000 NA
ENDBRANCH  28  29
ENDBRANCH  25  28
ENDBRANCH  23  25
ENDBRANCH  20  21
BRANCH  20  34
ATOM     34  CB  VAL A   3     -73.685  25.082 -40.822  0.00  0.00    +0.000 C 
ATOM     35  CG2 VAL A   3     -75.195  24.975 -40.973  0.00  0.00    +0.000 C 
ATOM     36  CG1 VAL A   3     -72.969  24.985 -42.175  0.00  0.00    +0.000 C 
ENDBRANCH  20  34
ENDBRANCH  17  20
ENDBRANCH   8  16
ENDBRANCH   7   8
ENDBRANCH   3   7
ENDBRANCH   1   2
BRANCH   1  37
ATOM     37  N   UNK A   1     -66.870  29.030 -38.553  0.00  0.00    +0.000 N 
ATOM     38  C   UNK A   1     -66.980  28.698 -37.279  0.00  0.00    +0.000 A 
ATOM     39  N   UNK A   1     -66.000  27.866 -36.980  0.00  0.00    +0.000 NA
ATOM     40  C   UNK A   1     -65.241  27.632 -38.106  0.00  0.00    +0.000 A 
ATOM     41  C   UNK A   1     -65.802  28.362 -39.099  0.00  0.00    +0.000 A 
BRANCH  40  42
ATOM     42  C   UNK A   1     -64.075  26.700 -38.110  0.00  0.00    +0.000 C 
BRANCH  42  43
ATOM     43  C   UNK A   1     -64.481  25.245 -37.920  0.00  0.00    +0.000 C 
BRANCH  43  44
ATOM     44  C   UNK A   1     -65.454  24.847 -39.012  0.00  0.00    +0.000 C 
ATOM     45  O   UNK A   1     -66.656  24.785 -38.769  0.00  0.00    +0.000 OA
ENDBRANCH  43  44
BRANCH  43  46
ATOM     46  N   UNK A   1     -63.337  24.356 -37.835  0.00  0.00    +0.000 NA
ATOM     47  H   UNK A   1     -62.416  24.643 -38.223  0.00  0.00    +0.000 HD
ENDBRANCH  43  46
ENDBRANCH  42  43
ENDBRANCH  40  42
ENDBRANCH   1  37
BRANCH   1  48
ATOM     48  O   UNK A   2     -66.577  31.758 -40.197  0.00  0.00    +0.000 OA
BRANCH  48  49
ATOM     49  C   UNK A   2     -66.109  32.411 -41.122  0.00  0.00    +0.000 C 
BRANCH  49  50
ATOM     50  N   UNK A   2     -66.837  33.220 -41.867  0.00  0.00    +0.000 NA
ATOM     51  H   UNK A   2     -67.855  33.324 -41.680  0.00  0.00    +0.000 HD
ATOM     52  H   UNK A   2     -66.393  33.754 -42.642  0.00  0.00    +0.000 HD
ENDBRANCH  49  50
BRANCH  49  53
ATOM     53  C   UNK A   2     -64.644  32.352 -41.430  0.00  0.00    +0.000 C 
BRANCH  53  54
ATOM     54  C   UNK A   2     -63.788  32.594 -40.189  0.00  0.00    +0.000 C 
BRANCH  54  55
ATOM     55  C   UNK A   2     -63.991  34.016 -39.674  0.00  0.00    +0.000 C 
ATOM     56  N   VAL A   3     -64.757  34.172 -38.599  0.00  0.00    +0.000 N 
ATOM     57  H   VAL A   3     -65.232  33.347 -38.181  0.00  0.00    +0.000 HD
ATOM     58  O   UNK A   2     -63.457  34.958 -40.242  0.00  0.00    +0.000 OA
BRANCH  56  59
ATOM     59  CA  VAL A   3     -64.937  35.486 -38.002  0.00  0.00    +0.000 C 
BRANCH  59  60
ATOM     60  C   VAL A   3     -63.709  35.912 -37.205  0.00  0.00    +0.000 C 
ATOM     61  O   VAL A   3     -63.618  37.047 -36.765  0.00  0.00    +0.000 OA
ATOM     62  N   HIS A   4     -62.749  35.008 -37.044  0.00  0.00    +0.000 N 
ATOM     63  H   HIS A   4     -62.893  34.033 -37.377  0.00  0.00    +0.000 HD
BRANCH  62  64
ATOM     64  CA  HIS A   4     -61.486  35.381 -36.397  0.00  0.00    +0.000 C 
BRANCH  64  65
ATOM     65  C   HIS A   4     -60.433  35.863 -37.400  0.00  0.00    +0.000 C 
ATOM     66  O   HIS A   4     -59.402  36.420 -37.012  0.00  0.00    +0.000 OA
ENDBRANCH  64  65
BRANCH  64  67
ATOM     67  CB  HIS A   4     -60.921  34.220 -35.567  0.00  0.00    +0.000 C 
BRANCH  67  68
ATOM     68  CG  HIS A   4     -61.586  34.057 -34.209  0.00  0.00    +0.000 C 
BRANCH  68  69
ATOM     69  CD  HIS A   4     -63.009  33.538 -34.319  0.00  0.00    +0.000 C 
ATOM     70  OE2 HIS A   4     -63.937  34.264 -33.902  0.00  0.00    +0.000 OA
ATOM     71  OE1 HIS A   4     -63.204  32.397 -34.810  0.00  0.00    +0.000 OA
ENDBRANCH  68  69
ENDBRANCH  67  68
ENDBRANCH  64  67
ENDBRANCH  62  64
ENDBRANCH  59  60
BRANCH  59  72
ATOM     72  CB  VAL A   3     -66.209  35.532 -37.157  0.00  0.00    +0.000 C 
BRANCH  72  73
ATOM     73  CG  VAL A   3     -67.452  35.538 -37.978  0.00  0.00    +0.000 A 
ATOM     74  ND1 VAL A   3     -68.039  36.701 -38.425  0.00  0.00    +0.000 NA
ATOM     75  CE1 VAL A   3     -69.103  36.405 -39.150  0.00  0.00    +0.000 A 
ATOM     76  NE2 VAL A   3     -69.212  35.089 -39.210  0.00  0.00    +0.000 NA
ATOM     77  CD2 VAL A   3     -68.187  34.523 -38.491  0.00  0.00    +0.000 A 
ENDBRANCH  72  73
ENDBRANCH  59  72
ENDBRANCH  56  59
ENDBRANCH  54  55
BRANCH  54  78
ATOM     78  N   UNK A   2     -64.002  31.562 -39.177  0.00  0.00    +0.000 N 
ATOM     79  C   UNK A   1     -63.063  31.356 -38.258  0.00  0.00    +0.000 C 
ATOM     80  O   UNK A   1     -62.046  32.066 -38.181  0.00  0.00    +0.000 OA
ATOM     81  H   UNK A   2     -64.875  30.997 -39.175  0.00  0.00    +0.000 HD
BRANCH  79  82
ATOM     82  C   UNK A   1     -63.284  30.214 -37.278  0.00  0.00    +0.000 C 
BRANCH  82  83
ATOM     83  N   UNK A   1     -62.269  30.234 -36.227  0.00  0.00    +0.000 NA
ATOM     84  H   UNK A   1     -62.354  30.923 -35.453  0.00  0.00    +0.000 HD
ENDBRANCH  82  83
ENDBRANCH  79  82
ENDBRANCH  54  78
ENDBRANCH  53  54
ENDBRANCH  49  53
ENDBRANCH  48  49
ENDBRANCH   1  48
BRANCH   1  85
ATOM     85  O   UNK A   2     -68.332  31.541 -37.453  0.00  0.00    +0.000 OA
BRANCH  85  86
ATOM     86  C   UNK A   2     -67.406  31.789 -36.666  0.00  0.00    +0.000 C 
ATOM     87  O   UNK A   2     -66.252  32.069 -37.058  0.00  0.00    +0.000 OA
BRANCH  86  88
ATOM     88  C   UNK A   2     -67.715  31.761 -35.173  0.00  0.00    +0.000 C 
BRANCH  88  89
ATOM     89  C   UNK A   2     -66.480  31.995 -34.312  0.00  0.00    +0.000 C 
BRANCH  89  92
ATOM     90  C   UNK A   1     -65.951  29.633 -33.822  0.00  0.00    +0.000 C 
ATOM     91  O   UNK A   1     -67.112  29.306 -33.564  0.00  0.00    +0.000 OA
ATOM     92  N   UNK A   2     -65.591  30.834 -34.276  0.00  0.00    +0.000 N 
ATOM     93  H   UNK A   2     -64.619  30.952 -34.626  0.00  0.00    +0.000 HD
BRANCH  90  94
ATOM     94  C   UNK A   1     -64.820  28.644 -33.660  0.00  0.00    +0.000 C 
BRANCH  94  95
ATOM     95  N   UNK A   1     -65.183  27.427 -32.951  0.00  0.00    +0.000 NA
ATOM     96  H   UNK A   1     -65.370  27.462 -31.929  0.00  0.00    +0.000 HD
ENDBRANCH  94  95
ENDBRANCH  90  94
ENDBRANCH  89  92
BRANCH  89  97
ATOM     97  C   UNK A   2     -66.864  32.425 -32.906  0.00  0.00    +0.000 C 
ATOM     98  O   UNK A   2     -67.917  32.036 -32.371  0.00  0.00    +0.000 OA
ENDBRANCH  89  97
ENDBRANCH  88  89
ENDBRANCH  86  88
ENDBRANCH  85  86
ENDBRANCH   1  85
TORSDOF 45
REMARK  Name = ../refined-set-2016/4dsy/4dsy_pocket.pdb
REMARK  107 active torsions:
REMARK  status: ('A' for Active; 'I' for Inactive)
REMARK    1  A    between atoms: _1  and  _3
REMARK    2  A    between atoms: _3  and  _4
REMARK    3  A    between atoms: _3  and  _6
REMARK    4  A    between atoms: _6  and  _7
REMARK    5  A    between atoms: _7  and  _9
REMARK    6  A    between atoms: _10  and  _12
REMARK    7  A    between atoms: _12  and  _13
REMARK    8  A    between atoms: _15  and  _17
REMARK    9  A    between atoms: _17  and  _18
REMARK   10  A    between atoms: _17  and  _20
REMARK   11  A    between atoms: _20  and  _21
REMARK   12  A    between atoms: _21  and  _23
REMARK   13  A    between atoms: _23  and  ZN_257
REMARK   14  A    between atoms: _24  and  _26
REMARK   15  A    between atoms: _26  and  _27
REMARK   16  A    between atoms: _26  and  _29
REMARK   17  A    between atoms: _29  and  _30
REMARK   18  A    between atoms: _35  and  _36
REMARK   19  A    between atoms: _38  and  _40
REMARK   20  A    between atoms: _40  and  _41
REMARK   21  A    between atoms: _40  and  _43
REMARK   22  A    between atoms: _43  and  _44
REMARK   23  A    between atoms: _47  and  _49
REMARK   24  A    between atoms: _49  and  _50
REMARK   25  A    between atoms: _49  and  _52
REMARK   26  A    between atoms: _52  and  _53
REMARK   27  A    between atoms: _53  and  _54
REMARK   28  A    between atoms: _54  and  _55
REMARK   29  A    between atoms: _64  and  _66
REMARK   30  A    between atoms: _66  and  _67
REMARK   31  A    between atoms: _69  and  _71
REMARK   32  A    between atoms: _71  and  _72
REMARK   33  A    between atoms: _71  and  _74
REMARK   34  A    between atoms: _74  and  _75
REMARK   35  A    between atoms: _75  and  _76
REMARK   36  A    between atoms: _75  and  _77
REMARK   37  A    between atoms: _76  and  ZN_257
REMARK   38  A    between atoms: _80  and  _82
REMARK   39  A    between atoms: _82  and  _83
REMARK   40  A    between atoms: _82  and  _85
REMARK   41  A    between atoms: _85  and  _86
REMARK   42  A    between atoms: _91  and  _93
REMARK   43  A    between atoms: _93  and  _94
REMARK   44  A    between atoms: _93  and  _96
REMARK   45  A    between atoms: _96  and  _97
REMARK   46  A    between atoms: _97  and  _98
REMARK   47  A    between atoms: _101  and  _103
REMARK   48  A    between atoms: _103  and  _104
REMARK   49  A    between atoms: _103  and  _106
REMARK   50  A    between atoms: _106  and  _107
REMARK   51  A    between atoms: _112  and  _113
REMARK   52  A    between atoms: _115  and  _117
REMARK   53  A    between atoms: _117  and  _118
REMARK   54  A    between atoms: _117  and  _120
REMARK   55  A    between atoms: _120  and  _121
REMARK   56  A    between atoms: _125  and  ZN_257
REMARK   57  A    between atoms: _126  and  _128
REMARK   58  A    between atoms: _128  and  _129
REMARK   59  A    between atoms: _128  and  _131
REMARK   60  A    between atoms: _131  and  _132
REMARK   61  A    between atoms: _137  and  _139
REMARK   62  A    between atoms: _139  and  _140
REMARK   63  A    between atoms: _139  and  _142
REMARK   64  A    between atoms: _142  and  _143
REMARK   65  A    between atoms: _148  and  _150
REMARK   66  A    between atoms: _150  and  _151
REMARK   67  A    between atoms: _150  and  _153
REMARK   68  A    between atoms: _153  and  _154
REMARK   69  A    between atoms: _154  and  _155
REMARK   70  A    between atoms: _158  and  _160
REMARK   71  A    between atoms: _160  and  _161
REMARK   72  A    between atoms: _163  and  _165
REMARK   73  A    between atoms: _165  and  _166
REMARK   74  A    between atoms: _165  and  _168
REMARK   75  A    between atoms: _168  and  _169
REMARK   76  A    between atoms: _170  and  ZN_257
REMARK   77  A    between atoms: _174  and  _176
REMARK   78  A    between atoms: _176  and  _177
REMARK   79  A    between atoms: _176  and  _179
REMARK   80  A    between atoms: _182  and  _184
REMARK   81  A    between atoms: _184  and  _185
REMARK   82  A    between atoms: _184  and  _187
REMARK   83  A    between atoms: _187  and  _188
REMARK   84  A    between atoms: _193  and  _195
REMARK   85  A    between atoms: _195  and  _196
REMARK   86  A    between atoms: _198  and  _200
REMARK   87  A    between atoms: _200  and  _201
REMARK   88  A    between atoms: _200  and  _203
REMARK   89  A    between atoms: _203  and  _204
REMARK   90  A    between atoms: _209  and  _211
REMARK   91  A    between atoms: _211  and  _212
REMARK   92  A    between atoms: _211  and  _214
REMARK   93  A    between atoms: _214  and  _215
REMARK   94  A    between atoms: _220  and  _221
REMARK   95  A    between atoms: _223  and  _225
REMARK   96  A    between atoms: _225  and  _226
REMARK   97  A    between atoms: _225  and  _228
REMARK   98  A    between atoms: _231  and  _233
REMARK   99  A    between atoms: _233  and  _234
REMARK  100  A    between atoms: _233  and  _236
REMARK  101  A    between atoms: _236  and  _237
REMARK  102  A    between atoms: _240  and  _242
REMARK  103  A    between atoms: _242  and  _243
REMARK  104  A    between atoms: _242  and  _245
REMARK  105  A    between atoms: _245  and  _246
REMARK  106  A    between atoms: _246  and  _247
REMARK  107  A    between atoms: _247  and  _248
REMARK                            x       y       z     vdW  Elec       q    Type
REMARK                         _______ _______ _______ _____ _____    ______ ____
ROOT
ATOM      1  CG  TYR A   1     -70.245  36.497 -34.529  0.00  0.00    -0.020 A 
ATOM      2  CD2 TYR A   1     -70.049  35.444 -33.635  0.00  0.00    -0.001 A 
ATOM      3  CE2 TYR A   1     -70.259  34.136 -34.011  0.00  0.00    +0.036 A 
ATOM      4  CZ  TYR A   1     -70.657  33.852 -35.302  0.00  0.00    +0.134 A 
ATOM      5  CE1 TYR A   1     -70.853  34.871 -36.225  0.00  0.00    +0.036 A 
ATOM      6  CD1 TYR A   1     -70.641  36.193 -35.832  0.00  0.00    -0.001 A 
ENDROOT
BRANCH   4   7
ATOM      7  OH  TYR A   1     -70.858  32.539 -35.647  0.00  0.00    -0.506 OA
ATOM      8  HH  TYR A   1     -70.251  32.298 -36.391  0.00  0.00    +0.292 HD
ENDBRANCH   4   7
BRANCH   1   9
ATOM      9  CB  TYR A   1     -69.999  37.923 -34.099  0.00  0.00    +0.051 C 
BRANCH   9  10
ATOM     10  CA  TYR A   1     -68.519  38.293 -34.103  0.00  0.00    +0.137 C 
BRANCH  10  11
ATOM     11  N   TYR A   1     -67.818  37.638 -33.007  0.00  0.00    -0.239 NA
ATOM     12  H   TYR A   1     -67.079  36.939 -33.224  0.00  0.00    +0.142 HD
ENDBRANCH  10  11
BRANCH  10  13
ATOM     13  C   TYR A   1     -68.318  39.811 -34.063  0.00  0.00    +0.224 C 
ATOM     14  O   TYR A   1     -69.135  40.589 -34.574  0.00  0.00    -0.287 OA
ENDBRANCH  10  13
ENDBRANCH   9  10
ENDBRANCH   1   9
TORSDOF 5
REMARK  Name = ../refined-set-2016/4dsy/4dsy_pocket.pdb
REMARK  107 active torsions:
REMARK  status: ('A' for Active; 'I' for Inactive)
REMARK    1  A    between atoms: _1  and  _3
REMARK    2  A    between atoms: _3  and  _4
REMARK    3  A    between atoms: _3  and  _6
REMARK    4  A    between atoms: _6  and  _7
REMARK    5  A    between atoms: _7  and  _9
REMARK    6  A    between atoms: _10  and  _12
REMARK    7  A    between atoms: _12  and  _13
REMARK    8  A    between atoms: _15  and  _17
REMARK    9  A    between atoms: _17  and  _18
REMARK   10  A    between atoms: _17  and  _20
REMARK   11  A    between atoms: _20  and  _21
REMARK   12  A    between atoms: _21  and  _23
REMARK   13  A    between atoms: _23  and  ZN_257
REMARK   14  A    between atoms: _24  and  _26
REMARK   15  A    between atoms: _26  and  _27
REMARK   16  A    between atoms: _26  and  _29
REMARK   17  A    between atoms: _29  and  _30
REMARK   18  A    between atoms: _35  and  _36
REMARK   19  A    between atoms: _38  and  _40
REMARK   20  A    between atoms: _40  and  _41
REMARK   21  A    between atoms: _40  and  _43
REMARK   22  A    between atoms: _43  and  _44
REMARK   23  A    between atoms: _47  and  _49
REMARK   24  A    between atoms: _49  and  _50
REMARK   25  A    between atoms: _49  and  _52
REMARK   26  A    between atoms: _52  and  _53
REMARK   27  A    between atoms: _53  and  _54
REMARK   28  A    between atoms: _54  and  _55
REMARK   29  A    between atoms: _64  and  _66
REMARK   30  A    between atoms: _66  and  _67
REMARK   31  A    between atoms: _69  and  _71
REMARK   32  A    between atoms: _71  and  _72
REMARK   33  A    between atoms: _71  and  _74
REMARK   34  A    between atoms: _74  and  _75
REMARK   35  A    between atoms: _75  and  _76
REMARK   36  A    between atoms: _75  and  _77
REMARK   37  A    between atoms: _76  and  ZN_257
REMARK   38  A    between atoms: _80  and  _82
REMARK   39  A    between atoms: _82  and  _83
REMARK   40  A    between atoms: _82  and  _85
REMARK   41  A    between atoms: _85  and  _86
REMARK   42  A    between atoms: _91  and  _93
REMARK   43  A    between atoms: _93  and  _94
REMARK   44  A    between atoms: _93  and  _96
REMARK   45  A    between atoms: _96  and  _97
REMARK   46  A    between atoms: _97  and  _98
REMARK   47  A    between atoms: _101  and  _103
REMARK   48  A    between atoms: _103  and  _104
REMARK   49  A    between atoms: _103  and  _106
REMARK   50  A    between atoms: _106  and  _107
REMARK   51  A    between atoms: _112  and  _113
REMARK   52  A    between atoms: _115  and  _117
REMARK   53  A    between atoms: _117  and  _118
REMARK   54  A    between atoms: _117  and  _120
REMARK   55  A    between atoms: _120  and  _121
REMARK   56  A    between atoms: _125  and  ZN_257
REMARK   57  A    between atoms: _126  and  _128
REMARK   58  A    between atoms: _128  and  _129
REMARK   59  A    between atoms: _128  and  _131
REMARK   60  A    between atoms: _131  and  _132
REMARK   61  A    between atoms: _137  and  _139
REMARK   62  A    between atoms: _139  and  _140
REMARK   63  A    between atoms: _139  and  _142
REMARK   64  A    between atoms: _142  and  _143
REMARK   65  A    between atoms: _148  and  _150
REMARK   66  A    between atoms: _150  and  _151
REMARK   67  A    between atoms: _150  and  _153
REMARK   68  A    between atoms: _153  and  _154
REMARK   69  A    between atoms: _154  and  _155
REMARK   70  A    between atoms: _158  and  _160
REMARK   71  A    between atoms: _160  and  _161
REMARK   72  A    between atoms: _163  and  _165
REMARK   73  A    between atoms: _165  and  _166
REMARK   74  A    between atoms: _165  and  _168
REMARK   75  A    between atoms: _168  and  _169
REMARK   76  A    between atoms: _170  and  ZN_257
REMARK   77  A    between atoms: _174  and  _176
REMARK   78  A    between atoms: _176  and  _177
REMARK   79  A    between atoms: _176  and  _179
REMARK   80  A    between atoms: _182  and  _184
REMARK   81  A    between atoms: _184  and  _185
REMARK   82  A    between atoms: _184  and  _187
REMARK   83  A    between atoms: _187  and  _188
REMARK   84  A    between atoms: _193  and  _195
REMARK   85  A    between atoms: _195  and  _196
REMARK   86  A    between atoms: _198  and  _200
REMARK   87  A    between atoms: _200  and  _201
REMARK   88  A    between atoms: _200  and  _203
REMARK   89  A    between atoms: _203  and  _204
REMARK   90  A    between atoms: _209  and  _211
REMARK   91  A    between atoms: _211  and  _212
REMARK   92  A    between atoms: _211  and  _214
REMARK   93  A    between atoms: _214  and  _215
REMARK   94  A    between atoms: _220  and  _221
REMARK   95  A    between atoms: _223  and  _225
REMARK   96  A    between atoms: _225  and  _226
REMARK   97  A    between atoms: _225  and  _228
REMARK   98  A    between atoms: _231  and  _233
REMARK   99  A    between atoms: _233  and  _234
REMARK  100  A    between atoms: _233  and  _236
REMARK  101  A    between atoms: _236  and  _237
REMARK  102  A    between atoms: _240  and  _242
REMARK  103  A    between atoms: _242  and  _243
REMARK  104  A    between atoms: _242  and  _245
REMARK  105  A    between atoms: _245  and  _246
REMARK  106  A    between atoms: _246  and  _247
REMARK  107  A    between atoms: _247  and  _248
REMARK                            x       y       z     vdW  Elec       q    Type
REMARK                         _______ _______ _______ _____ _____    ______ ____
ROOT
ATOM      1  CA  ARG A   2     -69.690  42.379 -37.926  0.00  0.00    +0.137 C 
ENDROOT
BRANCH   1   3
ATOM      2  C   ASP A   1     -67.296  42.120 -37.893  0.00  0.00    +0.239 C 
ATOM      3  N   ARG A   2     -68.459  41.915 -37.293  0.00  0.00    -0.298 N 
ATOM      4  H   ARG A   2     -68.495  41.426 -36.376  0.00  0.00    +0.150 HD
ATOM      5  O   ASP A   1     -67.215  42.646 -38.992  0.00  0.00    -0.274 OA
BRANCH   2   6
ATOM      6  CA  ASP A   1     -66.033  41.722 -37.138  0.00  0.00    +0.156 C 
BRANCH   6   7
ATOM      7  N   ASP A   1     -66.283  41.274 -35.780  0.00  0.00    -0.238 NA
ATOM      8  H   ASP A   1     -66.158  40.271 -35.533  0.00  0.00    +0.142 HD
ENDBRANCH   6   7
BRANCH   6   9
ATOM      9  CB  ASP A   1     -65.173  40.730 -37.932  0.00  0.00    +0.140 C 
BRANCH   9  10
ATOM     10  CG  ASP A   1     -65.917  39.471 -38.314  0.00  0.00    +0.367 C 
ATOM     11  OD2 ASP A   1     -66.876  39.094 -37.603  0.00  0.00    -0.246 OA
ATOM     12  OD1 ASP A   1     -65.520  38.847 -39.328  0.00  0.00    -0.246 OA
ENDBRANCH   9  10
ENDBRANCH   6   9
ENDBRANCH   2   6
ENDBRANCH   1   3
BRANCH   1  13
ATOM     13  C   ARG A   2     -69.936  43.870 -37.662  0.00  0.00    +0.227 C 
ATOM     14  O   ARG A   2     -70.758  44.493 -38.321  0.00  0.00    -0.286 OA
ENDBRANCH   1  13
BRANCH   1  15
ATOM     15  CB  ARG A   2     -70.888  41.536 -37.484  0.00  0.00    +0.031 C 
BRANCH  15  16
ATOM     16  CG  ARG A   2     -70.847  40.113 -38.025  0.00  0.00    +0.045 C 
BRANCH  16  17
ATOM     17  CD  ARG A   2     -72.093  39.328 -37.656  0.00  0.00    +0.174 C 
BRANCH  17  18
ATOM     18  NE  ARG A   2     -73.270  39.792 -38.387  0.00  0.00    -0.265 N 
ATOM     19  CZ  ARG A   2     -74.208  40.577 -37.866  0.00  0.00    +0.342 C 
ATOM     20  NH2 ARG A   2     -74.107  40.992 -36.605  0.00  0.00    -0.292 N 
ATOM     21 HH21 ARG A   2     -73.293  40.702 -36.026  0.00  0.00    +0.255 HD
ATOM     22 HH22 ARG A   2     -74.842  41.606 -36.199  0.00  0.00    +0.255 HD
ATOM     23  NH1 ARG A   2     -75.248  40.949 -38.603  0.00  0.00    -0.292 N 
ATOM     24 HH11 ARG A   2     -75.981  41.563 -38.195  0.00  0.00    +0.255 HD
ATOM     25 HH12 ARG A   2     -75.329  40.626 -39.588  0.00  0.00    +0.255 HD
ATOM     26  HE  ARG A   2     -73.381  39.490 -39.376  0.00  0.00    +0.259 HD
ENDBRANCH  17  18
ENDBRANCH  16  17
ENDBRANCH  15  16
ENDBRANCH   1  15
TORSDOF 10
REMARK  Name = ../refined-set-2016/4dsy/4dsy_pocket.pdb
REMARK  107 active torsions:
REMARK  status: ('A' for Active; 'I' for Inactive)
REMARK    1  A    between atoms: _1  and  _3
REMARK    2  A    between atoms: _3  and  _4
REMARK    3  A    between atoms: _3  and  _6
REMARK    4  A    between atoms: _6  and  _7
REMARK    5  A    between atoms: _7  and  _9
REMARK    6  A    between atoms: _10  and  _12
REMARK    7  A    between atoms: _12  and  _13
REMARK    8  A    between atoms: _15  and  _17
REMARK    9  A    between atoms: _17  and  _18
REMARK   10  A    between atoms: _17  and  _20
REMARK   11  A    between atoms: _20  and  _21
REMARK   12  A    between atoms: _21  and  _23
REMARK   13  A    between atoms: _23  and  ZN_257
REMARK   14  A    between atoms: _24  and  _26
REMARK   15  A    between atoms: _26  and  _27
REMARK   16  A    between atoms: _26  and  _29
REMARK   17  A    between atoms: _29  and  _30
REMARK   18  A    between atoms: _35  and  _36
REMARK   19  A    between atoms: _38  and  _40
REMARK   20  A    between atoms: _40  and  _41
REMARK   21  A    between atoms: _40  and  _43
REMARK   22  A    between atoms: _43  and  _44
REMARK   23  A    between atoms: _47  and  _49
REMARK   24  A    between atoms: _49  and  _50
REMARK   25  A    between atoms: _49  and  _52
REMARK   26  A    between atoms: _52  and  _53
REMARK   27  A    between atoms: _53  and  _54
REMARK   28  A    between atoms: _54  and  _55
REMARK   29  A    between atoms: _64  and  _66
REMARK   30  A    between atoms: _66  and  _67
REMARK   31  A    between atoms: _69  and  _71
REMARK   32  A    between atoms: _71  and  _72
REMARK   33  A    between atoms: _71  and  _74
REMARK   34  A    between atoms: _74  and  _75
REMARK   35  A    between atoms: _75  and  _76
REMARK   36  A    between atoms: _75  and  _77
REMARK   37  A    between atoms: _76  and  ZN_257
REMARK   38  A    between atoms: _80  and  _82
REMARK   39  A    between atoms: _82  and  _83
REMARK   40  A    between atoms: _82  and  _85
REMARK   41  A    between atoms: _85  and  _86
REMARK   42  A    between atoms: _91  and  _93
REMARK   43  A    between atoms: _93  and  _94
REMARK   44  A    between atoms: _93  and  _96
REMARK   45  A    between atoms: _96  and  _97
REMARK   46  A    between atoms: _97  and  _98
REMARK   47  A    between atoms: _101  and  _103
REMARK   48  A    between atoms: _103  and  _104
REMARK   49  A    between atoms: _103  and  _106
REMARK   50  A    between atoms: _106  and  _107
REMARK   51  A    between atoms: _112  and  _113
REMARK   52  A    between atoms: _115  and  _117
REMARK   53  A    between atoms: _117  and  _118
REMARK   54  A    between atoms: _117  and  _120
REMARK   55  A    between atoms: _120  and  _121
REMARK   56  A    between atoms: _125  and  ZN_257
REMARK   57  A    between atoms: _126  and  _128
REMARK   58  A    between atoms: _128  and  _129
REMARK   59  A    between atoms: _128  and  _131
REMARK   60  A    between atoms: _131  and  _132
REMARK   61  A    between atoms: _137  and  _139
REMARK   62  A    between atoms: _139  and  _140
REMARK   63  A    between atoms: _139  and  _142
REMARK   64  A    between atoms: _142  and  _143
REMARK   65  A    between atoms: _148  and  _150
REMARK   66  A    between atoms: _150  and  _151
REMARK   67  A    between atoms: _150  and  _153
REMARK   68  A    between atoms: _153  and  _154
REMARK   69  A    between atoms: _154  and  _155
REMARK   70  A    between atoms: _158  and  _160
REMARK   71  A    between atoms: _160  and  _161
REMARK   72  A    between atoms: _163  and  _165
REMARK   73  A    between atoms: _165  and  _166
REMARK   74  A    between atoms: _165  and  _168
REMARK   75  A    between atoms: _168  and  _169
REMARK   76  A    between atoms: _170  and  ZN_257
REMARK   77  A    between atoms: _174  and  _176
REMARK   78  A    between atoms: _176  and  _177
REMARK   79  A    between atoms: _176  and  _179
REMARK   80  A    between atoms: _182  and  _184
REMARK   81  A    between atoms: _184  and  _185
REMARK   82  A    between atoms: _184  and  _187
REMARK   83  A    between atoms: _187  and  _188
REMARK   84  A    between atoms: _193  and  _195
REMARK   85  A    between atoms: _195  and  _196
REMARK   86  A    between atoms: _198  and  _200
REMARK   87  A    between atoms: _200  and  _201
REMARK   88  A    between atoms: _200  and  _203
REMARK   89  A    between atoms: _203  and  _204
REMARK   90  A    between atoms: _209  and  _211
REMARK   91  A    between atoms: _211  and  _212
REMARK   92  A    between atoms: _211  and  _214
REMARK   93  A    between atoms: _214  and  _215
REMARK   94  A    between atoms: _220  and  _221
REMARK   95  A    between atoms: _223  and  _225
REMARK   96  A    between atoms: _225  and  _226
REMARK   97  A    between atoms: _225  and  _228
REMARK   98  A    between atoms: _231  and  _233
REMARK   99  A    between atoms: _233  and  _234
REMARK  100  A    between atoms: _233  and  _236
REMARK  101  A    between atoms: _236  and  _237
REMARK  102  A    between atoms: _240  and  _242
REMARK  103  A    between atoms: _242  and  _243
REMARK  104  A    between atoms: _242  and  _245
REMARK  105  A    between atoms: _245  and  _246
REMARK  106  A    between atoms: _246  and  _247
REMARK  107  A    between atoms: _247  and  _248
REMARK                            x       y       z     vdW  Elec       q    Type
REMARK                         _______ _______ _______ _____ _____    ______ ____
ROOT
ATOM      1  CG  TYR A   1     -60.751  29.893 -42.380  0.00  0.00    -0.020 A 
ATOM      2  CD2 TYR A   1     -61.449  29.647 -41.199  0.00  0.00    -0.001 A 
ATOM      3  CE2 TYR A   1     -62.779  29.241 -41.221  0.00  0.00    +0.036 A 
ATOM      4  CZ  TYR A   1     -63.413  29.048 -42.428  0.00  0.00    +0.134 A 
ATOM      5  CE1 TYR A   1     -62.734  29.255 -43.620  0.00  0.00    +0.036 A 
ATOM      6  CD1 TYR A   1     -61.407  29.663 -43.588  0.00  0.00    -0.001 A 
ENDROOT
BRANCH   4   7
ATOM      7  OH  TYR A   1     -64.726  28.640 -42.446  0.00  0.00    -0.506 OA
ATOM      8  HH  TYR A   1     -64.794  27.771 -42.915  0.00  0.00    +0.292 HD
ENDBRANCH   4   7
BRANCH   1   9
ATOM      9  CB  TYR A   1     -59.284  30.278 -42.364  0.00  0.00    +0.051 C 
BRANCH   9  10
ATOM     10  CA  TYR A   1     -58.484  29.083 -42.896  0.00  0.00    +0.137 C 
BRANCH  10  11
ATOM     11  N   TYR A   1     -58.880  27.880 -42.174  0.00  0.00    -0.239 NA
ATOM     12  H   TYR A   1     -58.798  27.856 -41.137  0.00  0.00    +0.142 HD
ENDBRANCH  10  11
BRANCH  10  13
ATOM     13  C   TYR A   1     -56.977  29.296 -42.915  0.00  0.00    +0.224 C 
ATOM     14  O   TYR A   1     -56.497  30.386 -43.190  0.00  0.00    -0.287 OA
ENDBRANCH  10  13
ENDBRANCH   9  10
ENDBRANCH   1   9
TORSDOF 5
REMARK  Name = ../refined-set-2016/4dsy/4dsy_pocket.pdb
REMARK  107 active torsions:
REMARK  status: ('A' for Active; 'I' for Inactive)
REMARK    1  A    between atoms: _1  and  _3
REMARK    2  A    between atoms: _3  and  _4
REMARK    3  A    between atoms: _3  and  _6
REMARK    4  A    between atoms: _6  and  _7
REMARK    5  A    between atoms: _7  and  _9
REMARK    6  A    between atoms: _10  and  _12
REMARK    7  A    between atoms: _12  and  _13
REMARK    8  A    between atoms: _15  and  _17
REMARK    9  A    between atoms: _17  and  _18
REMARK   10  A    between atoms: _17  and  _20
REMARK   11  A    between atoms: _20  and  _21
REMARK   12  A    between atoms: _21  and  _23
REMARK   13  A    between atoms: _23  and  ZN_257
REMARK   14  A    between atoms: _24  and  _26
REMARK   15  A    between atoms: _26  and  _27
REMARK   16  A    between atoms: _26  and  _29
REMARK   17  A    between atoms: _29  and  _30
REMARK   18  A    between atoms: _35  and  _36
REMARK   19  A    between atoms: _38  and  _40
REMARK   20  A    between atoms: _40  and  _41
REMARK   21  A    between atoms: _40  and  _43
REMARK   22  A    between atoms: _43  and  _44
REMARK   23  A    between atoms: _47  and  _49
REMARK   24  A    between atoms: _49  and  _50
REMARK   25  A    between atoms: _49  and  _52
REMARK   26  A    between atoms: _52  and  _53
REMARK   27  A    between atoms: _53  and  _54
REMARK   28  A    between atoms: _54  and  _55
REMARK   29  A    between atoms: _64  and  _66
REMARK   30  A    between atoms: _66  and  _67
REMARK   31  A    between atoms: _69  and  _71
REMARK   32  A    between atoms: _71  and  _72
REMARK   33  A    between atoms: _71  and  _74
REMARK   34  A    between atoms: _74  and  _75
REMARK   35  A    between atoms: _75  and  _76
REMARK   36  A    between atoms: _75  and  _77
REMARK   37  A    between atoms: _76  and  ZN_257
REMARK   38  A    between atoms: _80  and  _82
REMARK   39  A    between atoms: _82  and  _83
REMARK   40  A    between atoms: _82  and  _85
REMARK   41  A    between atoms: _85  and  _86
REMARK   42  A    between atoms: _91  and  _93
REMARK   43  A    between atoms: _93  and  _94
REMARK   44  A    between atoms: _93  and  _96
REMARK   45  A    between atoms: _96  and  _97
REMARK   46  A    between atoms: _97  and  _98
REMARK   47  A    between atoms: _101  and  _103
REMARK   48  A    between atoms: _103  and  _104
REMARK   49  A    between atoms: _103  and  _106
REMARK   50  A    between atoms: _106  and  _107
REMARK   51  A    between atoms: _112  and  _113
REMARK   52  A    between atoms: _115  and  _117
REMARK   53  A    between atoms: _117  and  _118
REMARK   54  A    between atoms: _117  and  _120
REMARK   55  A    between atoms: _120  and  _121
REMARK   56  A    between atoms: _125  and  ZN_257
REMARK   57  A    between atoms: _126  and  _128
REMARK   58  A    between atoms: _128  and  _129
REMARK   59  A    between atoms: _128  and  _131
REMARK   60  A    between atoms: _131  and  _132
REMARK   61  A    between atoms: _137  and  _139
REMARK   62  A    between atoms: _139  and  _140
REMARK   63  A    between atoms: _139  and  _142
REMARK   64  A    between atoms: _142  and  _143
REMARK   65  A    between atoms: _148  and  _150
REMARK   66  A    between atoms: _150  and  _151
REMARK   67  A    between atoms: _150  and  _153
REMARK   68  A    between atoms: _153  and  _154
REMARK   69  A    between atoms: _154  and  _155
REMARK   70  A    between atoms: _158  and  _160
REMARK   71  A    between atoms: _160  and  _161
REMARK   72  A    between atoms: _163  and  _165
REMARK   73  A    between atoms: _165  and  _166
REMARK   74  A    between atoms: _165  and  _168
REMARK   75  A    between atoms: _168  and  _169
REMARK   76  A    between atoms: _170  and  ZN_257
REMARK   77  A    between atoms: _174  and  _176
REMARK   78  A    between atoms: _176  and  _177
REMARK   79  A    between atoms: _176  and  _179
REMARK   80  A    between atoms: _182  and  _184
REMARK   81  A    between atoms: _184  and  _185
REMARK   82  A    between atoms: _184  and  _187
REMARK   83  A    between atoms: _187  and  _188
REMARK   84  A    between atoms: _193  and  _195
REMARK   85  A    between atoms: _195  and  _196
REMARK   86  A    between atoms: _198  and  _200
REMARK   87  A    between atoms: _200  and  _201
REMARK   88  A    between atoms: _200  and  _203
REMARK   89  A    between atoms: _203  and  _204
REMARK   90  A    between atoms: _209  and  _211
REMARK   91  A    between atoms: _211  and  _212
REMARK   92  A    between atoms: _211  and  _214
REMARK   93  A    between atoms: _214  and  _215
REMARK   94  A    between atoms: _220  and  _221
REMARK   95  A    between atoms: _223  and  _225
REMARK   96  A    between atoms: _225  and  _226
REMARK   97  A    between atoms: _225  and  _228
REMARK   98  A    between atoms: _231  and  _233
REMARK   99  A    between atoms: _233  and  _234
REMARK  100  A    between atoms: _233  and  _236
REMARK  101  A    between atoms: _236  and  _237
REMARK  102  A    between atoms: _240  and  _242
REMARK  103  A    between atoms: _242  and  _243
REMARK  104  A    between atoms: _242  and  _245
REMARK  105  A    between atoms: _245  and  _246
REMARK  106  A    between atoms: _246  and  _247
REMARK  107  A    between atoms: _247  and  _248
REMARK                            x       y       z     vdW  Elec       q    Type
REMARK                         _______ _______ _______ _____ _____    ______ ____
ROOT
ATOM      1  C   HIS A   1     -74.291  27.193 -45.975  0.00  0.00    +0.239 C 
ATOM      2  O   HIS A   1     -74.104  26.163 -45.321  0.00  0.00    -0.274 OA
ATOM      3  N   HIS A   2     -73.333  27.783 -46.693  0.00  0.00    -0.298 N 
ATOM      4  H   HIS A   2     -73.565  28.653 -47.213  0.00  0.00    +0.150 HD
ENDROOT
BRANCH   1   5
ATOM      5  CA  HIS A   1     -75.677  27.861 -46.011  0.00  0.00    +0.151 C 
BRANCH   5   6
ATOM      6  N   HIS A   1     -76.731  26.933 -46.416  0.00  0.00    -0.238 NA
ATOM      7  H   HIS A   1     -77.508  26.736 -45.753  0.00  0.00    +0.142 HD
ENDBRANCH   5   6
BRANCH   5   8
ATOM      8  CB  HIS A   1     -76.028  28.469 -44.648  0.00  0.00    +0.074 C 
BRANCH   8   9
ATOM      9  CG  HIS A   1     -75.376  29.787 -44.368  0.00  0.00    +0.082 A 
ATOM     10  CD2 HIS A   1     -75.149  30.442 -43.203  0.00  0.00    +0.115 A 
ATOM     11  NE2 HIS A   1     -74.520  31.624 -43.509  0.00  0.00    -0.221 NA
ATOM     12  CE1 HIS A   1     -74.364  31.696 -44.823  0.00  0.00    +0.199 A 
ATOM     13  ND1 HIS A   1     -74.867  30.604 -45.363  0.00  0.00    -0.227 NA
ENDBRANCH   8   9
ENDBRANCH   5   8
ENDBRANCH   1   5
BRANCH   3  14
ATOM     14  CA  HIS A   2     -71.969  27.258 -46.781  0.00  0.00    +0.143 C 
BRANCH  14  15
ATOM     15  C   HIS A   2     -71.923  25.847 -47.352  0.00  0.00    +0.227 C 
ATOM     16  O   HIS A   2     -70.927  25.137 -47.185  0.00  0.00    -0.286 OA
ENDBRANCH  14  15
BRANCH  14  17
ATOM     17  CB  HIS A   2     -71.254  27.273 -45.423  0.00  0.00    +0.075 C 
BRANCH  17  18
ATOM     18  CG  HIS A   2     -71.320  28.589 -44.714  0.00  0.00    +0.082 A 
ATOM     19  CD2 HIS A   2     -71.826  28.925 -43.501  0.00  0.00    +0.115 A 
ATOM     20  NE2 HIS A   2     -71.616  30.275 -43.334  0.00  0.00    -0.221 NA
ATOM     21  CE1 HIS A   2     -71.000  30.748 -44.404  0.00  0.00    +0.199 A 
ATOM     22  ND1 HIS A   2     -70.808  29.751 -45.251  0.00  0.00    -0.227 NA
ENDBRANCH  17  18
ENDBRANCH  14  17
ENDBRANCH   3  14
TORSDOF 8
REMARK  Name = ../refined-set-2016/4dsy/4dsy_pocket.pdb
REMARK  107 active torsions:
REMARK  status: ('A' for Active; 'I' for Inactive)
REMARK    1  A    between atoms: _1  and  _3
REMARK    2  A    between atoms: _3  and  _4
REMARK    3  A    between atoms: _3  and  _6
REMARK    4  A    between atoms: _6  and  _7
REMARK    5  A    between atoms: _7  and  _9
REMARK    6  A    between atoms: _10  and  _12
REMARK    7  A    between atoms: _12  and  _13
REMARK    8  A    between atoms: _15  and  _17
REMARK    9  A    between atoms: _17  and  _18
REMARK   10  A    between atoms: _17  and  _20
REMARK   11  A    between atoms: _20  and  _21
REMARK   12  A    between atoms: _21  and  _23
REMARK   13  A    between atoms: _23  and  ZN_257
REMARK   14  A    between atoms: _24  and  _26
REMARK   15  A    between atoms: _26  and  _27
REMARK   16  A    between atoms: _26  and  _29
REMARK   17  A    between atoms: _29  and  _30
REMARK   18  A    between atoms: _35  and  _36
REMARK   19  A    between atoms: _38  and  _40
REMARK   20  A    between atoms: _40  and  _41
REMARK   21  A    between atoms: _40  and  _43
REMARK   22  A    between atoms: _43  and  _44
REMARK   23  A    between atoms: _47  and  _49
REMARK   24  A    between atoms: _49  and  _50
REMARK   25  A    between atoms: _49  and  _52
REMARK   26  A    between atoms: _52  and  _53
REMARK   27  A    between atoms: _53  and  _54
REMARK   28  A    between atoms: _54  and  _55
REMARK   29  A    between atoms: _64  and  _66
REMARK   30  A    between atoms: _66  and  _67
REMARK   31  A    between atoms: _69  and  _71
REMARK   32  A    between atoms: _71  and  _72
REMARK   33  A    between atoms: _71  and  _74
REMARK   34  A    between atoms: _74  and  _75
REMARK   35  A    between atoms: _75  and  _76
REMARK   36  A    between atoms: _75  and  _77
REMARK   37  A    between atoms: _76  and  ZN_257
REMARK   38  A    between atoms: _80  and  _82
REMARK   39  A    between atoms: _82  and  _83
REMARK   40  A    between atoms: _82  and  _85
REMARK   41  A    between atoms: _85  and  _86
REMARK   42  A    between atoms: _91  and  _93
REMARK   43  A    between atoms: _93  and  _94
REMARK   44  A    between atoms: _93  and  _96
REMARK   45  A    between atoms: _96  and  _97
REMARK   46  A    between atoms: _97  and  _98
REMARK   47  A    between atoms: _101  and  _103
REMARK   48  A    between atoms: _103  and  _104
REMARK   49  A    between atoms: _103  and  _106
REMARK   50  A    between atoms: _106  and  _107
REMARK   51  A    between atoms: _112  and  _113
REMARK   52  A    between atoms: _115  and  _117
REMARK   53  A    between atoms: _117  and  _118
REMARK   54  A    between atoms: _117  and  _120
REMARK   55  A    between atoms: _120  and  _121
REMARK   56  A    between atoms: _125  and  ZN_257
REMARK   57  A    between atoms: _126  and  _128
REMARK   58  A    between atoms: _128  and  _129
REMARK   59  A    between atoms: _128  and  _131
REMARK   60  A    between atoms: _131  and  _132
REMARK   61  A    between atoms: _137  and  _139
REMARK   62  A    between atoms: _139  and  _140
REMARK   63  A    between atoms: _139  and  _142
REMARK   64  A    between atoms: _142  and  _143
REMARK   65  A    between atoms: _148  and  _150
REMARK   66  A    between atoms: _150  and  _151
REMARK   67  A    between atoms: _150  and  _153
REMARK   68  A    between atoms: _153  and  _154
REMARK   69  A    between atoms: _154  and  _155
REMARK   70  A    between atoms: _158  and  _160
REMARK   71  A    between atoms: _160  and  _161
REMARK   72  A    between atoms: _163  and  _165
REMARK   73  A    between atoms: _165  and  _166
REMARK   74  A    between atoms: _165  and  _168
REMARK   75  A    between atoms: _168  and  _169
REMARK   76  A    between atoms: _170  and  ZN_257
REMARK   77  A    between atoms: _174  and  _176
REMARK   78  A    between atoms: _176  and  _177
REMARK   79  A    between atoms: _176  and  _179
REMARK   80  A    between atoms: _182  and  _184
REMARK   81  A    between atoms: _184  and  _185
REMARK   82  A    between atoms: _184  and  _187
REMARK   83  A    between atoms: _187  and  _188
REMARK   84  A    between atoms: _193  and  _195
REMARK   85  A    between atoms: _195  and  _196
REMARK   86  A    between atoms: _198  and  _200
REMARK   87  A    between atoms: _200  and  _201
REMARK   88  A    between atoms: _200  and  _203
REMARK   89  A    between atoms: _203  and  _204
REMARK   90  A    between atoms: _209  and  _211
REMARK   91  A    between atoms: _211  and  _212
REMARK   92  A    between atoms: _211  and  _214
REMARK   93  A    between atoms: _214  and  _215
REMARK   94  A    between atoms: _220  and  _221
REMARK   95  A    between atoms: _223  and  _225
REMARK   96  A    between atoms: _225  and  _226
REMARK   97  A    between atoms: _225  and  _228
REMARK   98  A    between atoms: _231  and  _233
REMARK   99  A    between atoms: _233  and  _234
REMARK  100  A    between atoms: _233  and  _236
REMARK  101  A    between atoms: _236  and  _237
REMARK  102  A    between atoms: _240  and  _242
REMARK  103  A    between atoms: _242  and  _243
REMARK  104  A    between atoms: _242  and  _245
REMARK  105  A    between atoms: _245  and  _246
REMARK  106  A    between atoms: _246  and  _247
REMARK  107  A    between atoms: _247  and  _248
REMARK                            x       y       z     vdW  Elec       q    Type
REMARK                         _______ _______ _______ _____ _____    ______ ____
ROOT
ATOM      1  CA  GLU A   1     -67.326  24.879 -48.413  0.00  0.00    +0.134 C 
ENDROOT
BRANCH   1   2
ATOM      2  N   GLU A   1     -68.570  24.179 -48.771  0.00  0.00    -0.239 NA
ATOM      3  H   GLU A   1     -69.469  24.453 -48.325  0.00  0.00    +0.142 HD
ENDBRANCH   1   2
BRANCH   1   4
ATOM      4  C   GLU A   1     -66.265  23.946 -47.841  0.00  0.00    +0.224 C 
ATOM      5  O   GLU A   1     -65.076  24.161 -48.057  0.00  0.00    -0.287 OA
ENDBRANCH   1   4
BRANCH   1   6
ATOM      6  CB  GLU A   1     -67.573  26.036 -47.446  0.00  0.00    +0.037 C 
BRANCH   6   7
ATOM      7  CG  GLU A   1     -67.995  27.298 -48.154  0.00  0.00    +0.116 C 
BRANCH   7   8
ATOM      8  CD  GLU A   1     -68.417  28.376 -47.197  0.00  0.00    +0.365 C 
ATOM      9  OE2 GLU A   1     -67.768  28.515 -46.129  0.00  0.00    -0.246 OA
ATOM     10  OE1 GLU A   1     -69.408  29.070 -47.512  0.00  0.00    -0.246 OA
ENDBRANCH   7   8
ENDBRANCH   6   7
ENDBRANCH   1   6
TORSDOF 5
REMARK  Name = ../refined-set-2016/4dsy/4dsy_pocket.pdb
REMARK  107 active torsions:
REMARK  status: ('A' for Active; 'I' for Inactive)
REMARK    1  A    between atoms: _1  and  _3
REMARK    2  A    between atoms: _3  and  _4
REMARK    3  A    between atoms: _3  and  _6
REMARK    4  A    between atoms: _6  and  _7
REMARK    5  A    between atoms: _7  and  _9
REMARK    6  A    between atoms: _10  and  _12
REMARK    7  A    between atoms: _12  and  _13
REMARK    8  A    between atoms: _15  and  _17
REMARK    9  A    between atoms: _17  and  _18
REMARK   10  A    between atoms: _17  and  _20
REMARK   11  A    between atoms: _20  and  _21
REMARK   12  A    between atoms: _21  and  _23
REMARK   13  A    between atoms: _23  and  ZN_257
REMARK   14  A    between atoms: _24  and  _26
REMARK   15  A    between atoms: _26  and  _27
REMARK   16  A    between atoms: _26  and  _29
REMARK   17  A    between atoms: _29  and  _30
REMARK   18  A    between atoms: _35  and  _36
REMARK   19  A    between atoms: _38  and  _40
REMARK   20  A    between atoms: _40  and  _41
REMARK   21  A    between atoms: _40  and  _43
REMARK   22  A    between atoms: _43  and  _44
REMARK   23  A    between atoms: _47  and  _49
REMARK   24  A    between atoms: _49  and  _50
REMARK   25  A    between atoms: _49  and  _52
REMARK   26  A    between atoms: _52  and  _53
REMARK   27  A    between atoms: _53  and  _54
REMARK   28  A    between atoms: _54  and  _55
REMARK   29  A    between atoms: _64  and  _66
REMARK   30  A    between atoms: _66  and  _67
REMARK   31  A    between atoms: _69  and  _71
REMARK   32  A    between atoms: _71  and  _72
REMARK   33  A    between atoms: _71  and  _74
REMARK   34  A    between atoms: _74  and  _75
REMARK   35  A    between atoms: _75  and  _76
REMARK   36  A    between atoms: _75  and  _77
REMARK   37  A    between atoms: _76  and  ZN_257
REMARK   38  A    between atoms: _80  and  _82
REMARK   39  A    between atoms: _82  and  _83
REMARK   40  A    between atoms: _82  and  _85
REMARK   41  A    between atoms: _85  and  _86
REMARK   42  A    between atoms: _91  and  _93
REMARK   43  A    between atoms: _93  and  _94
REMARK   44  A    between atoms: _93  and  _96
REMARK   45  A    between atoms: _96  and  _97
REMARK   46  A    between atoms: _97  and  _98
REMARK   47  A    between atoms: _101  and  _103
REMARK   48  A    between atoms: _103  and  _104
REMARK   49  A    between atoms: _103  and  _106
REMARK   50  A    between atoms: _106  and  _107
REMARK   51  A    between atoms: _112  and  _113
REMARK   52  A    between atoms: _115  and  _117
REMARK   53  A    between atoms: _117  and  _118
REMARK   54  A    between atoms: _117  and  _120
REMARK   55  A    between atoms: _120  and  _121
REMARK   56  A    between atoms: _125  and  ZN_257
REMARK   57  A    between atoms: _126  and  _128
REMARK   58  A    between atoms: _128  and  _129
REMARK   59  A    between atoms: _128  and  _131
REMARK   60  A    between atoms: _131  and  _132
REMARK   61  A    between atoms: _137  and  _139
REMARK   62  A    between atoms: _139  and  _140
REMARK   63  A    between atoms: _139  and  _142
REMARK   64  A    between atoms: _142  and  _143
REMARK   65  A    between atoms: _148  and  _150
REMARK   66  A    between atoms: _150  and  _151
REMARK   67  A    between atoms: _150  and  _153
REMARK   68  A    between atoms: _153  and  _154
REMARK   69  A    between atoms: _154  and  _155
REMARK   70  A    between atoms: _158  and  _160
REMARK   71  A    between atoms: _160  and  _161
REMARK   72  A    between atoms: _163  and  _165
REMARK   73  A    between atoms: _165  and  _166
REMARK   74  A    between atoms: _165  and  _168
REMARK   75  A    between atoms: _168  and  _169
REMARK   76  A    between atoms: _170  and  ZN_257
REMARK   77  A    between atoms: _174  and  _176
REMARK   78  A    between atoms: _176  and  _177
REMARK   79  A    between atoms: _176  and  _179
REMARK   80  A    between atoms: _182  and  _184
REMARK   81  A    between atoms: _184  and  _185
REMARK   82  A    between atoms: _184  and  _187
REMARK   83  A    between atoms: _187  and  _188
REMARK   84  A    between atoms: _193  and  _195
REMARK   85  A    between atoms: _195  and  _196
REMARK   86  A    between atoms: _198  and  _200
REMARK   87  A    between atoms: _200  and  _201
REMARK   88  A    between atoms: _200  and  _203
REMARK   89  A    between atoms: _203  and  _204
REMARK   90  A    between atoms: _209  and  _211
REMARK   91  A    between atoms: _211  and  _212
REMARK   92  A    between atoms: _211  and  _214
REMARK   93  A    between atoms: _214  and  _215
REMARK   94  A    between atoms: _220  and  _221
REMARK   95  A    between atoms: _223  and  _225
REMARK   96  A    between atoms: _225  and  _226
REMARK   97  A    between atoms: _225  and  _228
REMARK   98  A    between atoms: _231  and  _233
REMARK   99  A    between atoms: _233  and  _234
REMARK  100  A    between atoms: _233  and  _236
REMARK  101  A    between atoms: _236  and  _237
REMARK  102  A    between atoms: _240  and  _242
REMARK  103  A    between atoms: _242  and  _243
REMARK  104  A    between atoms: _242  and  _245
REMARK  105  A    between atoms: _245  and  _246
REMARK  106  A    between atoms: _246  and  _247
REMARK  107  A    between atoms: _247  and  _248
REMARK                            x       y       z     vdW  Elec       q    Type
REMARK                         _______ _______ _______ _____ _____    ______ ____
ROOT
ATOM      1  CA  GLY A   1     -72.438  25.791 -34.785  0.00  0.00    +0.156 C 
ENDROOT
BRANCH   1   2
ATOM      2  N   GLY A   1     -72.651  24.353 -34.758  0.00  0.00    -0.238 NA
ATOM      3  H   GLY A   1     -72.912  23.861 -35.636  0.00  0.00    +0.142 HD
ENDBRANCH   1   2
BRANCH   1   4
ATOM      4  C   GLY A   1     -73.676  26.599 -34.450  0.00  0.00    +0.226 C 
ATOM      5  O   GLY A   1     -73.924  27.654 -35.045  0.00  0.00    -0.287 OA
ENDBRANCH   1   4
TORSDOF 2
REMARK  Name = ../refined-set-2016/4dsy/4dsy_pocket.pdb
REMARK  107 active torsions:
REMARK  status: ('A' for Active; 'I' for Inactive)
REMARK    1  A    between atoms: _1  and  _3
REMARK    2  A    between atoms: _3  and  _4
REMARK    3  A    between atoms: _3  and  _6
REMARK    4  A    between atoms: _6  and  _7
REMARK    5  A    between atoms: _7  and  _9
REMARK    6  A    between atoms: _10  and  _12
REMARK    7  A    between atoms: _12  and  _13
REMARK    8  A    between atoms: _15  and  _17
REMARK    9  A    between atoms: _17  and  _18
REMARK   10  A    between atoms: _17  and  _20
REMARK   11  A    between atoms: _20  and  _21
REMARK   12  A    between atoms: _21  and  _23
REMARK   13  A    between atoms: _23  and  ZN_257
REMARK   14  A    between atoms: _24  and  _26
REMARK   15  A    between atoms: _26  and  _27
REMARK   16  A    between atoms: _26  and  _29
REMARK   17  A    between atoms: _29  and  _30
REMARK   18  A    between atoms: _35  and  _36
REMARK   19  A    between atoms: _38  and  _40
REMARK   20  A    between atoms: _40  and  _41
REMARK   21  A    between atoms: _40  and  _43
REMARK   22  A    between atoms: _43  and  _44
REMARK   23  A    between atoms: _47  and  _49
REMARK   24  A    between atoms: _49  and  _50
REMARK   25  A    between atoms: _49  and  _52
REMARK   26  A    between atoms: _52  and  _53
REMARK   27  A    between atoms: _53  and  _54
REMARK   28  A    between atoms: _54  and  _55
REMARK   29  A    between atoms: _64  and  _66
REMARK   30  A    between atoms: _66  and  _67
REMARK   31  A    between atoms: _69  and  _71
REMARK   32  A    between atoms: _71  and  _72
REMARK   33  A    between atoms: _71  and  _74
REMARK   34  A    between atoms: _74  and  _75
REMARK   35  A    between atoms: _75  and  _76
REMARK   36  A    between atoms: _75  and  _77
REMARK   37  A    between atoms: _76  and  ZN_257
REMARK   38  A    between atoms: _80  and  _82
REMARK   39  A    between atoms: _82  and  _83
REMARK   40  A    between atoms: _82  and  _85
REMARK   41  A    between atoms: _85  and  _86
REMARK   42  A    between atoms: _91  and  _93
REMARK   43  A    between atoms: _93  and  _94
REMARK   44  A    between atoms: _93  and  _96
REMARK   45  A    between atoms: _96  and  _97
REMARK   46  A    between atoms: _97  and  _98
REMARK   47  A    between atoms: _101  and  _103
REMARK   48  A    between atoms: _103  and  _104
REMARK   49  A    between atoms: _103  and  _106
REMARK   50  A    between atoms: _106  and  _107
REMARK   51  A    between atoms: _112  and  _113
REMARK   52  A    between atoms: _115  and  _117
REMARK   53  A    between atoms: _117  and  _118
REMARK   54  A    between atoms: _117  and  _120
REMARK   55  A    between atoms: _120  and  _121
REMARK   56  A    between atoms: _125  and  ZN_257
REMARK   57  A    between atoms: _126  and  _128
REMARK   58  A    between atoms: _128  and  _129
REMARK   59  A    between atoms: _128  and  _131
REMARK   60  A    between atoms: _131  and  _132
REMARK   61  A    between atoms: _137  and  _139
REMARK   62  A    between atoms: _139  and  _140
REMARK   63  A    between atoms: _139  and  _142
REMARK   64  A    between atoms: _142  and  _143
REMARK   65  A    between atoms: _148  and  _150
REMARK   66  A    between atoms: _150  and  _151
REMARK   67  A    between atoms: _150  and  _153
REMARK   68  A    between atoms: _153  and  _154
REMARK   69  A    between atoms: _154  and  _155
REMARK   70  A    between atoms: _158  and  _160
REMARK   71  A    between atoms: _160  and  _161
REMARK   72  A    between atoms: _163  and  _165
REMARK   73  A    between atoms: _165  and  _166
REMARK   74  A    between atoms: _165  and  _168
REMARK   75  A    between atoms: _168  and  _169
REMARK   76  A    between atoms: _170  and  ZN_257
REMARK   77  A    between atoms: _174  and  _176
REMARK   78  A    between atoms: _176  and  _177
REMARK   79  A    between atoms: _176  and  _179
REMARK   80  A    between atoms: _182  and  _184
REMARK   81  A    between atoms: _184  and  _185
REMARK   82  A    between atoms: _184  and  _187
REMARK   83  A    between atoms: _187  and  _188
REMARK   84  A    between atoms: _193  and  _195
REMARK   85  A    between atoms: _195  and  _196
REMARK   86  A    between atoms: _198  and  _200
REMARK   87  A    between atoms: _200  and  _201
REMARK   88  A    between atoms: _200  and  _203
REMARK   89  A    between atoms: _203  and  _204
REMARK   90  A    between atoms: _209  and  _211
REMARK   91  A    between atoms: _211  and  _212
REMARK   92  A    between atoms: _211  and  _214
REMARK   93  A    between atoms: _214  and  _215
REMARK   94  A    between atoms: _220  and  _221
REMARK   95  A    between atoms: _223  and  _225
REMARK   96  A    between atoms: _225  and  _226
REMARK   97  A    between atoms: _225  and  _228
REMARK   98  A    between atoms: _231  and  _233
REMARK   99  A    between atoms: _233  and  _234
REMARK  100  A    between atoms: _233  and  _236
REMARK  101  A    between atoms: _236  and  _237
REMARK  102  A    between atoms: _240  and  _242
REMARK  103  A    between atoms: _242  and  _243
REMARK  104  A    between atoms: _242  and  _245
REMARK  105  A    between atoms: _245  and  _246
REMARK  106  A    between atoms: _246  and  _247
REMARK  107  A    between atoms: _247  and  _248
REMARK                            x       y       z     vdW  Elec       q    Type
REMARK                         _______ _______ _______ _____ _____    ______ ____
ROOT
ATOM      1  C   ASN A   1     -74.698  35.170 -33.002  0.00  0.00    +0.239 C 
ATOM      2  O   ASN A   1     -74.659  35.658 -31.865  0.00  0.00    -0.274 OA
ATOM      3  N   TYR A   2     -75.221  35.825 -34.036  0.00  0.00    -0.298 N 
ATOM      4  H   TYR A   2     -75.173  35.412 -34.989  0.00  0.00    +0.150 HD
ENDROOT
BRANCH   1   5
ATOM      5  CA  ASN A   1     -74.127  33.760 -33.261  0.00  0.00    +0.154 C 
BRANCH   5   6
ATOM      6  N   ASN A   1     -74.700  32.751 -32.364  0.00  0.00    -0.238 NA
ATOM      7  H   ASN A   1     -74.080  32.021 -31.959  0.00  0.00    +0.142 HD
ENDBRANCH   5   6
BRANCH   5   8
ATOM      8  CB  ASN A   1     -74.211  33.336 -34.742  0.00  0.00    +0.111 C 
BRANCH   8   9
ATOM      9  CG  ASN A   1     -75.649  33.140 -35.242  0.00  0.00    +0.221 C 
ATOM     10  ND2 ASN A   1     -76.151  31.905 -35.174  0.00  0.00    -0.329 N 
ATOM     11 HD21 ASN A   1     -75.579  31.132 -34.778  0.00  0.00    +0.145 HD
ATOM     12 HD22 ASN A   1     -77.114  31.716 -35.517  0.00  0.00    +0.145 HD
ATOM     13  OD1 ASN A   1     -76.286  34.084 -35.701  0.00  0.00    -0.275 OA
ENDBRANCH   8   9
ENDBRANCH   5   8
ENDBRANCH   1   5
BRANCH   3  14
ATOM     14  CA  TYR A   2     -75.864  37.127 -33.835  0.00  0.00    +0.141 C 
BRANCH  14  15
ATOM     15  C   TYR A   2     -77.383  37.005 -33.926  0.00  0.00    +0.227 C 
ATOM     16  O   TYR A   2     -78.065  37.981 -34.250  0.00  0.00    -0.286 OA
ENDBRANCH  14  15
BRANCH  14  17
ATOM     17  CB  TYR A   2     -75.342  38.175 -34.829  0.00  0.00    +0.054 C 
BRANCH  17  18
ATOM     18  CG  TYR A   2     -75.312  37.647 -36.235  0.00  0.00    -0.020 A 
ATOM     19  CD2 TYR A   2     -74.229  36.912 -36.689  0.00  0.00    -0.001 A 
ATOM     20  CE2 TYR A   2     -74.195  36.412 -37.973  0.00  0.00    +0.036 A 
ATOM     21  CZ  TYR A   2     -75.264  36.634 -38.825  0.00  0.00    +0.134 A 
ATOM     22  CE1 TYR A   2     -76.357  37.364 -38.390  0.00  0.00    +0.036 A 
ATOM     23  CD1 TYR A   2     -76.377  37.863 -37.102  0.00  0.00    -0.001 A 
BRANCH  21  24
ATOM     24  OH  TYR A   2     -75.235  36.117 -40.110  0.00  0.00    -0.506 OA
ATOM     25  HH  TYR A   2     -74.386  35.628 -40.249  0.00  0.00    +0.292 HD
ENDBRANCH  21  24
ENDBRANCH  17  18
ENDBRANCH  14  17
ENDBRANCH   3  14
TORSDOF 9
REMARK  Name = ../refined-set-2016/4dsy/4dsy_pocket.pdb
REMARK  107 active torsions:
REMARK  status: ('A' for Active; 'I' for Inactive)
REMARK    1  A    between atoms: _1  and  _3
REMARK    2  A    between atoms: _3  and  _4
REMARK    3  A    between atoms: _3  and  _6
REMARK    4  A    between atoms: _6  and  _7
REMARK    5  A    between atoms: _7  and  _9
REMARK    6  A    between atoms: _10  and  _12
REMARK    7  A    between atoms: _12  and  _13
REMARK    8  A    between atoms: _15  and  _17
REMARK    9  A    between atoms: _17  and  _18
REMARK   10  A    between atoms: _17  and  _20
REMARK   11  A    between atoms: _20  and  _21
REMARK   12  A    between atoms: _21  and  _23
REMARK   13  A    between atoms: _23  and  ZN_257
REMARK   14  A    between atoms: _24  and  _26
REMARK   15  A    between atoms: _26  and  _27
REMARK   16  A    between atoms: _26  and  _29
REMARK   17  A    between atoms: _29  and  _30
REMARK   18  A    between atoms: _35  and  _36
REMARK   19  A    between atoms: _38  and  _40
REMARK   20  A    between atoms: _40  and  _41
REMARK   21  A    between atoms: _40  and  _43
REMARK   22  A    between atoms: _43  and  _44
REMARK   23  A    between atoms: _47  and  _49
REMARK   24  A    between atoms: _49  and  _50
REMARK   25  A    between atoms: _49  and  _52
REMARK   26  A    between atoms: _52  and  _53
REMARK   27  A    between atoms: _53  and  _54
REMARK   28  A    between atoms: _54  and  _55
REMARK   29  A    between atoms: _64  and  _66
REMARK   30  A    between atoms: _66  and  _67
REMARK   31  A    between atoms: _69  and  _71
REMARK   32  A    between atoms: _71  and  _72
REMARK   33  A    between atoms: _71  and  _74
REMARK   34  A    between atoms: _74  and  _75
REMARK   35  A    between atoms: _75  and  _76
REMARK   36  A    between atoms: _75  and  _77
REMARK   37  A    between atoms: _76  and  ZN_257
REMARK   38  A    between atoms: _80  and  _82
REMARK   39  A    between atoms: _82  and  _83
REMARK   40  A    between atoms: _82  and  _85
REMARK   41  A    between atoms: _85  and  _86
REMARK   42  A    between atoms: _91  and  _93
REMARK   43  A    between atoms: _93  and  _94
REMARK   44  A    between atoms: _93  and  _96
REMARK   45  A    between atoms: _96  and  _97
REMARK   46  A    between atoms: _97  and  _98
REMARK   47  A    between atoms: _101  and  _103
REMARK   48  A    between atoms: _103  and  _104
REMARK   49  A    between atoms: _103  and  _106
REMARK   50  A    between atoms: _106  and  _107
REMARK   51  A    between atoms: _112  and  _113
REMARK   52  A    between atoms: _115  and  _117
REMARK   53  A    between atoms: _117  and  _118
REMARK   54  A    between atoms: _117  and  _120
REMARK   55  A    between atoms: _120  and  _121
REMARK   56  A    between atoms: _125  and  ZN_257
REMARK   57  A    between atoms: _126  and  _128
REMARK   58  A    between atoms: _128  and  _129
REMARK   59  A    between atoms: _128  and  _131
REMARK   60  A    between atoms: _131  and  _132
REMARK   61  A    between atoms: _137  and  _139
REMARK   62  A    between atoms: _139  and  _140
REMARK   63  A    between atoms: _139  and  _142
REMARK   64  A    between atoms: _142  and  _143
REMARK   65  A    between atoms: _148  and  _150
REMARK   66  A    between atoms: _150  and  _151
REMARK   67  A    between atoms: _150  and  _153
REMARK   68  A    between atoms: _153  and  _154
REMARK   69  A    between atoms: _154  and  _155
REMARK   70  A    between atoms: _158  and  _160
REMARK   71  A    between atoms: _160  and  _161
REMARK   72  A    between atoms: _163  and  _165
REMARK   73  A    between atoms: _165  and  _166
REMARK   74  A    between atoms: _165  and  _168
REMARK   75  A    between atoms: _168  and  _169
REMARK   76  A    between atoms: _170  and  ZN_257
REMARK   77  A    between atoms: _174  and  _176
REMARK   78  A    between atoms: _176  and  _177
REMARK   79  A    between atoms: _176  and  _179
REMARK   80  A    between atoms: _182  and  _184
REMARK   81  A    between atoms: _184  and  _185
REMARK   82  A    between atoms: _184  and  _187
REMARK   83  A    between atoms: _187  and  _188
REMARK   84  A    between atoms: _193  and  _195
REMARK   85  A    between atoms: _195  and  _196
REMARK   86  A    between atoms: _198  and  _200
REMARK   87  A    between atoms: _200  and  _201
REMARK   88  A    between atoms: _200  and  _203
REMARK   89  A    between atoms: _203  and  _204
REMARK   90  A    between atoms: _209  and  _211
REMARK   91  A    between atoms: _211  and  _212
REMARK   92  A    between atoms: _211  and  _214
REMARK   93  A    between atoms: _214  and  _215
REMARK   94  A    between atoms: _220  and  _221
REMARK   95  A    between atoms: _223  and  _225
REMARK   96  A    between atoms: _225  and  _226
REMARK   97  A    between atoms: _225  and  _228
REMARK   98  A    between atoms: _231  and  _233
REMARK   99  A    between atoms: _233  and  _234
REMARK  100  A    between atoms: _233  and  _236
REMARK  101  A    between atoms: _236  and  _237
REMARK  102  A    between atoms: _240  and  _242
REMARK  103  A    between atoms: _242  and  _243
REMARK  104  A    between atoms: _242  and  _245
REMARK  105  A    between atoms: _245  and  _246
REMARK  106  A    between atoms: _246  and  _247
REMARK  107  A    between atoms: _247  and  _248
REMARK                            x       y       z     vdW  Elec       q    Type
REMARK                         _______ _______ _______ _____ _____    ______ ____
ROOT
ATOM      1  CA  VAL A   1     -79.868  33.978 -36.864  0.00  0.00    +0.133 C 
ENDROOT
BRANCH   1   2
ATOM      2  CB  VAL A   1     -79.357  34.759 -38.096  0.00  0.00    +0.023 C 
ATOM      3  CG2 VAL A   1     -79.767  36.229 -38.006  0.00  0.00    +0.002 C 
ATOM      4  CG1 VAL A   1     -79.899  34.147 -39.373  0.00  0.00    +0.002 C 
ENDBRANCH   1   2
BRANCH   1   5
ATOM      5  N   VAL A   1     -79.282  34.496 -35.638  0.00  0.00    -0.239 NA
ATOM      6  H   VAL A   1     -78.251  34.463 -35.508  0.00  0.00    +0.142 HD
ENDBRANCH   1   5
BRANCH   1   7
ATOM      7  C   VAL A   1     -79.601  32.473 -37.032  0.00  0.00    +0.224 C 
ATOM      8  O   VAL A   1     -78.463  32.025 -36.974  0.00  0.00    -0.287 OA
ENDBRANCH   1   7
TORSDOF 3
REMARK  Name = ../refined-set-2016/4dsy/4dsy_pocket.pdb
REMARK  107 active torsions:
REMARK  status: ('A' for Active; 'I' for Inactive)
REMARK    1  A    between atoms: _1  and  _3
REMARK    2  A    between atoms: _3  and  _4
REMARK    3  A    between atoms: _3  and  _6
REMARK    4  A    between atoms: _6  and  _7
REMARK    5  A    between atoms: _7  and  _9
REMARK    6  A    between atoms: _10  and  _12
REMARK    7  A    between atoms: _12  and  _13
REMARK    8  A    between atoms: _15  and  _17
REMARK    9  A    between atoms: _17  and  _18
REMARK   10  A    between atoms: _17  and  _20
REMARK   11  A    between atoms: _20  and  _21
REMARK   12  A    between atoms: _21  and  _23
REMARK   13  A    between atoms: _23  and  ZN_257
REMARK   14  A    between atoms: _24  and  _26
REMARK   15  A    between atoms: _26  and  _27
REMARK   16  A    between atoms: _26  and  _29
REMARK   17  A    between atoms: _29  and  _30
REMARK   18  A    between atoms: _35  and  _36
REMARK   19  A    between atoms: _38  and  _40
REMARK   20  A    between atoms: _40  and  _41
REMARK   21  A    between atoms: _40  and  _43
REMARK   22  A    between atoms: _43  and  _44
REMARK   23  A    between atoms: _47  and  _49
REMARK   24  A    between atoms: _49  and  _50
REMARK   25  A    between atoms: _49  and  _52
REMARK   26  A    between atoms: _52  and  _53
REMARK   27  A    between atoms: _53  and  _54
REMARK   28  A    between atoms: _54  and  _55
REMARK   29  A    between atoms: _64  and  _66
REMARK   30  A    between atoms: _66  and  _67
REMARK   31  A    between atoms: _69  and  _71
REMARK   32  A    between atoms: _71  and  _72
REMARK   33  A    between atoms: _71  and  _74
REMARK   34  A    between atoms: _74  and  _75
REMARK   35  A    between atoms: _75  and  _76
REMARK   36  A    between atoms: _75  and  _77
REMARK   37  A    between atoms: _76  and  ZN_257
REMARK   38  A    between atoms: _80  and  _82
REMARK   39  A    between atoms: _82  and  _83
REMARK   40  A    between atoms: _82  and  _85
REMARK   41  A    between atoms: _85  and  _86
REMARK   42  A    between atoms: _91  and  _93
REMARK   43  A    between atoms: _93  and  _94
REMARK   44  A    between atoms: _93  and  _96
REMARK   45  A    between atoms: _96  and  _97
REMARK   46  A    between atoms: _97  and  _98
REMARK   47  A    between atoms: _101  and  _103
REMARK   48  A    between atoms: _103  and  _104
REMARK   49  A    between atoms: _103  and  _106
REMARK   50  A    between atoms: _106  and  _107
REMARK   51  A    between atoms: _112  and  _113
REMARK   52  A    between atoms: _115  and  _117
REMARK   53  A    between atoms: _117  and  _118
REMARK   54  A    between atoms: _117  and  _120
REMARK   55  A    between atoms: _120  and  _121
REMARK   56  A    between atoms: _125  and  ZN_257
REMARK   57  A    between atoms: _126  and  _128
REMARK   58  A    between atoms: _128  and  _129
REMARK   59  A    between atoms: _128  and  _131
REMARK   60  A    between atoms: _131  and  _132
REMARK   61  A    between atoms: _137  and  _139
REMARK   62  A    between atoms: _139  and  _140
REMARK   63  A    between atoms: _139  and  _142
REMARK   64  A    between atoms: _142  and  _143
REMARK   65  A    between atoms: _148  and  _150
REMARK   66  A    between atoms: _150  and  _151
REMARK   67  A    between atoms: _150  and  _153
REMARK   68  A    between atoms: _153  and  _154
REMARK   69  A    between atoms: _154  and  _155
REMARK   70  A    between atoms: _158  and  _160
REMARK   71  A    between atoms: _160  and  _161
REMARK   72  A    between atoms: _163  and  _165
REMARK   73  A    between atoms: _165  and  _166
REMARK   74  A    between atoms: _165  and  _168
REMARK   75  A    between atoms: _168  and  _169
REMARK   76  A    between atoms: _170  and  ZN_257
REMARK   77  A    between atoms: _174  and  _176
REMARK   78  A    between atoms: _176  and  _177
REMARK   79  A    between atoms: _176  and  _179
REMARK   80  A    between atoms: _182  and  _184
REMARK   81  A    between atoms: _184  and  _185
REMARK   82  A    between atoms: _184  and  _187
REMARK   83  A    between atoms: _187  and  _188
REMARK   84  A    between atoms: _193  and  _195
REMARK   85  A    between atoms: _195  and  _196
REMARK   86  A    between atoms: _198  and  _200
REMARK   87  A    between atoms: _200  and  _201
REMARK   88  A    between atoms: _200  and  _203
REMARK   89  A    between atoms: _203  and  _204
REMARK   90  A    between atoms: _209  and  _211
REMARK   91  A    between atoms: _211  and  _212
REMARK   92  A    between atoms: _211  and  _214
REMARK   93  A    between atoms: _214  and  _215
REMARK   94  A    between atoms: _220  and  _221
REMARK   95  A    between atoms: _223  and  _225
REMARK   96  A    between atoms: _225  and  _226
REMARK   97  A    between atoms: _225  and  _228
REMARK   98  A    between atoms: _231  and  _233
REMARK   99  A    between atoms: _233  and  _234
REMARK  100  A    between atoms: _233  and  _236
REMARK  101  A    between atoms: _236  and  _237
REMARK  102  A    between atoms: _240  and  _242
REMARK  103  A    between atoms: _242  and  _243
REMARK  104  A    between atoms: _242  and  _245
REMARK  105  A    between atoms: _245  and  _246
REMARK  106  A    between atoms: _246  and  _247
REMARK  107  A    between atoms: _247  and  _248
REMARK                            x       y       z     vdW  Elec       q    Type
REMARK                         _______ _______ _______ _____ _____    ______ ____
ROOT
ATOM      1  CA  ASP A   1     -79.770  28.466 -40.736  0.00  0.00    +0.144 C 
ENDROOT
BRANCH   1   2
ATOM      2  N   ASP A   1     -79.733  28.943 -39.345  0.00  0.00    -0.239 NA
ATOM      3  H   ASP A   1     -79.059  28.519 -38.676  0.00  0.00    +0.142 HD
ENDBRANCH   1   2
BRANCH   1   4
ATOM      4  C   ASP A   1     -80.826  27.382 -40.895  0.00  0.00    +0.225 C 
ATOM      5  O   ASP A   1     -80.605  26.220 -40.553  0.00  0.00    -0.287 OA
ENDBRANCH   1   4
BRANCH   1   6
ATOM      6  CB  ASP A   1     -78.409  27.927 -41.195  0.00  0.00    +0.139 C 
BRANCH   6   7
ATOM      7  CG  ASP A   1     -77.336  29.018 -41.294  0.00  0.00    +0.367 C 
ATOM      8  OD2 ASP A   1     -76.139  28.701 -41.116  0.00  0.00    -0.246 OA
ATOM      9  OD1 ASP A   1     -77.677  30.190 -41.560  0.00  0.00    -0.246 OA
ENDBRANCH   6   7
ENDBRANCH   1   6
TORSDOF 4
REMARK  Name = ../refined-set-2016/4dsy/4dsy_pocket.pdb
REMARK  107 active torsions:
REMARK  status: ('A' for Active; 'I' for Inactive)
REMARK    1  A    between atoms: _1  and  _3
REMARK    2  A    between atoms: _3  and  _4
REMARK    3  A    between atoms: _3  and  _6
REMARK    4  A    between atoms: _6  and  _7
REMARK    5  A    between atoms: _7  and  _9
REMARK    6  A    between atoms: _10  and  _12
REMARK    7  A    between atoms: _12  and  _13
REMARK    8  A    between atoms: _15  and  _17
REMARK    9  A    between atoms: _17  and  _18
REMARK   10  A    between atoms: _17  and  _20
REMARK   11  A    between atoms: _20  and  _21
REMARK   12  A    between atoms: _21  and  _23
REMARK   13  A    between atoms: _23  and  ZN_257
REMARK   14  A    between atoms: _24  and  _26
REMARK   15  A    between atoms: _26  and  _27
REMARK   16  A    between atoms: _26  and  _29
REMARK   17  A    between atoms: _29  and  _30
REMARK   18  A    between atoms: _35  and  _36
REMARK   19  A    between atoms: _38  and  _40
REMARK   20  A    between atoms: _40  and  _41
REMARK   21  A    between atoms: _40  and  _43
REMARK   22  A    between atoms: _43  and  _44
REMARK   23  A    between atoms: _47  and  _49
REMARK   24  A    between atoms: _49  and  _50
REMARK   25  A    between atoms: _49  and  _52
REMARK   26  A    between atoms: _52  and  _53
REMARK   27  A    between atoms: _53  and  _54
REMARK   28  A    between atoms: _54  and  _55
REMARK   29  A    between atoms: _64  and  _66
REMARK   30  A    between atoms: _66  and  _67
REMARK   31  A    between atoms: _69  and  _71
REMARK   32  A    between atoms: _71  and  _72
REMARK   33  A    between atoms: _71  and  _74
REMARK   34  A    between atoms: _74  and  _75
REMARK   35  A    between atoms: _75  and  _76
REMARK   36  A    between atoms: _75  and  _77
REMARK   37  A    between atoms: _76  and  ZN_257
REMARK   38  A    between atoms: _80  and  _82
REMARK   39  A    between atoms: _82  and  _83
REMARK   40  A    between atoms: _82  and  _85
REMARK   41  A    between atoms: _85  and  _86
REMARK   42  A    between atoms: _91  and  _93
REMARK   43  A    between atoms: _93  and  _94
REMARK   44  A    between atoms: _93  and  _96
REMARK   45  A    between atoms: _96  and  _97
REMARK   46  A    between atoms: _97  and  _98
REMARK   47  A    between atoms: _101  and  _103
REMARK   48  A    between atoms: _103  and  _104
REMARK   49  A    between atoms: _103  and  _106
REMARK   50  A    between atoms: _106  and  _107
REMARK   51  A    between atoms: _112  and  _113
REMARK   52  A    between atoms: _115  and  _117
REMARK   53  A    between atoms: _117  and  _118
REMARK   54  A    between atoms: _117  and  _120
REMARK   55  A    between atoms: _120  and  _121
REMARK   56  A    between atoms: _125  and  ZN_257
REMARK   57  A    between atoms: _126  and  _128
REMARK   58  A    between atoms: _128  and  _129
REMARK   59  A    between atoms: _128  and  _131
REMARK   60  A    between atoms: _131  and  _132
REMARK   61  A    between atoms: _137  and  _139
REMARK   62  A    between atoms: _139  and  _140
REMARK   63  A    between atoms: _139  and  _142
REMARK   64  A    between atoms: _142  and  _143
REMARK   65  A    between atoms: _148  and  _150
REMARK   66  A    between atoms: _150  and  _151
REMARK   67  A    between atoms: _150  and  _153
REMARK   68  A    between atoms: _153  and  _154
REMARK   69  A    between atoms: _154  and  _155
REMARK   70  A    between atoms: _158  and  _160
REMARK   71  A    between atoms: _160  and  _161
REMARK   72  A    between atoms: _163  and  _165
REMARK   73  A    between atoms: _165  and  _166
REMARK   74  A    between atoms: _165  and  _168
REMARK   75  A    between atoms: _168  and  _169
REMARK   76  A    between atoms: _170  and  ZN_257
REMARK   77  A    between atoms: _174  and  _176
REMARK   78  A    between atoms: _176  and  _177
REMARK   79  A    between atoms: _176  and  _179
REMARK   80  A    between atoms: _182  and  _184
REMARK   81  A    between atoms: _184  and  _185
REMARK   82  A    between atoms: _184  and  _187
REMARK   83  A    between atoms: _187  and  _188
REMARK   84  A    between atoms: _193  and  _195
REMARK   85  A    between atoms: _195  and  _196
REMARK   86  A    between atoms: _198  and  _200
REMARK   87  A    between atoms: _200  and  _201
REMARK   88  A    between atoms: _200  and  _203
REMARK   89  A    between atoms: _203  and  _204
REMARK   90  A    between atoms: _209  and  _211
REMARK   91  A    between atoms: _211  and  _212
REMARK   92  A    between atoms: _211  and  _214
REMARK   93  A    between atoms: _214  and  _215
REMARK   94  A    between atoms: _220  and  _221
REMARK   95  A    between atoms: _223  and  _225
REMARK   96  A    between atoms: _225  and  _226
REMARK   97  A    between atoms: _225  and  _228
REMARK   98  A    between atoms: _231  and  _233
REMARK   99  A    between atoms: _233  and  _234
REMARK  100  A    between atoms: _233  and  _236
REMARK  101  A    between atoms: _236  and  _237
REMARK  102  A    between atoms: _240  and  _242
REMARK  103  A    between atoms: _242  and  _243
REMARK  104  A    between atoms: _242  and  _245
REMARK  105  A    between atoms: _245  and  _246
REMARK  106  A    between atoms: _246  and  _247
REMARK  107  A    between atoms: _247  and  _248
REMARK                            x       y       z     vdW  Elec       q    Type
REMARK                         _______ _______ _______ _____ _____    ______ ____
ROOT
ATOM      1  NE  ARG A   1     -67.881  32.111 -49.377  0.00  0.00    -0.265 N 
ATOM      2  CZ  ARG A   1     -68.791  32.854 -48.760  0.00  0.00    +0.342 C 
ATOM      3  NH2 ARG A   1     -68.933  32.786 -47.439  0.00  0.00    -0.292 N 
ATOM      4 HH21 ARG A   1     -68.329  32.148 -46.883  0.00  0.00    +0.255 HD
ATOM      5 HH22 ARG A   1     -69.648  33.371 -46.962  0.00  0.00    +0.255 HD
ATOM      6  NH1 ARG A   1     -69.566  33.661 -49.474  0.00  0.00    -0.292 N 
ATOM      7 HH11 ARG A   1     -70.282  34.248 -49.000  0.00  0.00    +0.255 HD
ATOM      8 HH12 ARG A   1     -69.457  33.707 -50.507  0.00  0.00    +0.255 HD
ATOM      9  HE  ARG A   1     -67.809  32.193 -50.411  0.00  0.00    +0.259 HD
ENDROOT
BRANCH   1  10
ATOM     10  CD  ARG A   1     -66.974  31.187 -48.705  0.00  0.00    +0.174 C 
BRANCH  10  11
ATOM     11  CG  ARG A   1     -65.561  31.711 -48.694  0.00  0.00    +0.045 C 
BRANCH  11  12
ATOM     12  CB  ARG A   1     -64.569  30.627 -48.346  0.00  0.00    +0.029 C 
BRANCH  12  13
ATOM     13  CA  ARG A   1     -63.109  31.089 -48.378  0.00  0.00    +0.133 C 
BRANCH  13  14
ATOM     14  N   ARG A   1     -62.230  29.951 -48.216  0.00  0.00    -0.239 NA
ATOM     15  H   ARG A   1     -62.645  29.010 -48.059  0.00  0.00    +0.142 HD
ENDBRANCH  13  14
BRANCH  13  16
ATOM     16  C   ARG A   1     -62.840  32.105 -47.266  0.00  0.00    +0.224 C 
ATOM     17  O   ARG A   1     -62.767  31.741 -46.087  0.00  0.00    -0.287 OA
ENDBRANCH  13  16
ENDBRANCH  12  13
ENDBRANCH  11  12
ENDBRANCH  10  11
ENDBRANCH   1  10
TORSDOF 6
REMARK  Name = ../refined-set-2016/4dsy/4dsy_pocket.pdb
REMARK  107 active torsions:
REMARK  status: ('A' for Active; 'I' for Inactive)
REMARK    1  A    between atoms: _1  and  _3
REMARK    2  A    between atoms: _3  and  _4
REMARK    3  A    between atoms: _3  and  _6
REMARK    4  A    between atoms: _6  and  _7
REMARK    5  A    between atoms: _7  and  _9
REMARK    6  A    between atoms: _10  and  _12
REMARK    7  A    between atoms: _12  and  _13
REMARK    8  A    between atoms: _15  and  _17
REMARK    9  A    between atoms: _17  and  _18
REMARK   10  A    between atoms: _17  and  _20
REMARK   11  A    between atoms: _20  and  _21
REMARK   12  A    between atoms: _21  and  _23
REMARK   13  A    between atoms: _23  and  ZN_257
REMARK   14  A    between atoms: _24  and  _26
REMARK   15  A    between atoms: _26  and  _27
REMARK   16  A    between atoms: _26  and  _29
REMARK   17  A    between atoms: _29  and  _30
REMARK   18  A    between atoms: _35  and  _36
REMARK   19  A    between atoms: _38  and  _40
REMARK   20  A    between atoms: _40  and  _41
REMARK   21  A    between atoms: _40  and  _43
REMARK   22  A    between atoms: _43  and  _44
REMARK   23  A    between atoms: _47  and  _49
REMARK   24  A    between atoms: _49  and  _50
REMARK   25  A    between atoms: _49  and  _52
REMARK   26  A    between atoms: _52  and  _53
REMARK   27  A    between atoms: _53  and  _54
REMARK   28  A    between atoms: _54  and  _55
REMARK   29  A    between atoms: _64  and  _66
REMARK   30  A    between atoms: _66  and  _67
REMARK   31  A    between atoms: _69  and  _71
REMARK   32  A    between atoms: _71  and  _72
REMARK   33  A    between atoms: _71  and  _74
REMARK   34  A    between atoms: _74  and  _75
REMARK   35  A    between atoms: _75  and  _76
REMARK   36  A    between atoms: _75  and  _77
REMARK   37  A    between atoms: _76  and  ZN_257
REMARK   38  A    between atoms: _80  and  _82
REMARK   39  A    between atoms: _82  and  _83
REMARK   40  A    between atoms: _82  and  _85
REMARK   41  A    between atoms: _85  and  _86
REMARK   42  A    between atoms: _91  and  _93
REMARK   43  A    between atoms: _93  and  _94
REMARK   44  A    between atoms: _93  and  _96
REMARK   45  A    between atoms: _96  and  _97
REMARK   46  A    between atoms: _97  and  _98
REMARK   47  A    between atoms: _101  and  _103
REMARK   48  A    between atoms: _103  and  _104
REMARK   49  A    between atoms: _103  and  _106
REMARK   50  A    between atoms: _106  and  _107
REMARK   51  A    between atoms: _112  and  _113
REMARK   52  A    between atoms: _115  and  _117
REMARK   53  A    between atoms: _117  and  _118
REMARK   54  A    between atoms: _117  and  _120
REMARK   55  A    between atoms: _120  and  _121
REMARK   56  A    between atoms: _125  and  ZN_257
REMARK   57  A    between atoms: _126  and  _128
REMARK   58  A    between atoms: _128  and  _129
REMARK   59  A    between atoms: _128  and  _131
REMARK   60  A    between atoms: _131  and  _132
REMARK   61  A    between atoms: _137  and  _139
REMARK   62  A    between atoms: _139  and  _140
REMARK   63  A    between atoms: _139  and  _142
REMARK   64  A    between atoms: _142  and  _143
REMARK   65  A    between atoms: _148  and  _150
REMARK   66  A    between atoms: _150  and  _151
REMARK   67  A    between atoms: _150  and  _153
REMARK   68  A    between atoms: _153  and  _154
REMARK   69  A    between atoms: _154  and  _155
REMARK   70  A    between atoms: _158  and  _160
REMARK   71  A    between atoms: _160  and  _161
REMARK   72  A    between atoms: _163  and  _165
REMARK   73  A    between atoms: _165  and  _166
REMARK   74  A    between atoms: _165  and  _168
REMARK   75  A    between atoms: _168  and  _169
REMARK   76  A    between atoms: _170  and  ZN_257
REMARK   77  A    between atoms: _174  and  _176
REMARK   78  A    between atoms: _176  and  _177
REMARK   79  A    between atoms: _176  and  _179
REMARK   80  A    between atoms: _182  and  _184
REMARK   81  A    between atoms: _184  and  _185
REMARK   82  A    between atoms: _184  and  _187
REMARK   83  A    between atoms: _187  and  _188
REMARK   84  A    between atoms: _193  and  _195
REMARK   85  A    between atoms: _195  and  _196
REMARK   86  A    between atoms: _198  and  _200
REMARK   87  A    between atoms: _200  and  _201
REMARK   88  A    between atoms: _200  and  _203
REMARK   89  A    between atoms: _203  and  _204
REMARK   90  A    between atoms: _209  and  _211
REMARK   91  A    between atoms: _211  and  _212
REMARK   92  A    between atoms: _211  and  _214
REMARK   93  A    between atoms: _214  and  _215
REMARK   94  A    between atoms: _220  and  _221
REMARK   95  A    between atoms: _223  and  _225
REMARK   96  A    between atoms: _225  and  _226
REMARK   97  A    between atoms: _225  and  _228
REMARK   98  A    between atoms: _231  and  _233
REMARK   99  A    between atoms: _233  and  _234
REMARK  100  A    between atoms: _233  and  _236
REMARK  101  A    between atoms: _236  and  _237
REMARK  102  A    between atoms: _240  and  _242
REMARK  103  A    between atoms: _242  and  _243
REMARK  104  A    between atoms: _242  and  _245
REMARK  105  A    between atoms: _245  and  _246
REMARK  106  A    between atoms: _246  and  _247
REMARK  107  A    between atoms: _247  and  _248
REMARK                            x       y       z     vdW  Elec       q    Type
REMARK                         _______ _______ _______ _____ _____    ______ ____
ROOT
ATOM      1  O   HOH     1     -74.545  29.807 -33.736  0.00  0.00    +0.000 OA
ENDROOT
TORSDOF 0
REMARK  Name = ../refined-set-2016/4dsy/4dsy_pocket.pdb
REMARK  107 active torsions:
REMARK  status: ('A' for Active; 'I' for Inactive)
REMARK    1  A    between atoms: _1  and  _3
REMARK    2  A    between atoms: _3  and  _4
REMARK    3  A    between atoms: _3  and  _6
REMARK    4  A    between atoms: _6  and  _7
REMARK    5  A    between atoms: _7  and  _9
REMARK    6  A    between atoms: _10  and  _12
REMARK    7  A    between atoms: _12  and  _13
REMARK    8  A    between atoms: _15  and  _17
REMARK    9  A    between atoms: _17  and  _18
REMARK   10  A    between atoms: _17  and  _20
REMARK   11  A    between atoms: _20  and  _21
REMARK   12  A    between atoms: _21  and  _23
REMARK   13  A    between atoms: _23  and  ZN_257
REMARK   14  A    between atoms: _24  and  _26
REMARK   15  A    between atoms: _26  and  _27
REMARK   16  A    between atoms: _26  and  _29
REMARK   17  A    between atoms: _29  and  _30
REMARK   18  A    between atoms: _35  and  _36
REMARK   19  A    between atoms: _38  and  _40
REMARK   20  A    between atoms: _40  and  _41
REMARK   21  A    between atoms: _40  and  _43
REMARK   22  A    between atoms: _43  and  _44
REMARK   23  A    between atoms: _47  and  _49
REMARK   24  A    between atoms: _49  and  _50
REMARK   25  A    between atoms: _49  and  _52
REMARK   26  A    between atoms: _52  and  _53
REMARK   27  A    between atoms: _53  and  _54
REMARK   28  A    between atoms: _54  and  _55
REMARK   29  A    between atoms: _64  and  _66
REMARK   30  A    between atoms: _66  and  _67
REMARK   31  A    between atoms: _69  and  _71
REMARK   32  A    between atoms: _71  and  _72
REMARK   33  A    between atoms: _71  and  _74
REMARK   34  A    between atoms: _74  and  _75
REMARK   35  A    between atoms: _75  and  _76
REMARK   36  A    between atoms: _75  and  _77
REMARK   37  A    between atoms: _76  and  ZN_257
REMARK   38  A    between atoms: _80  and  _82
REMARK   39  A    between atoms: _82  and  _83
REMARK   40  A    between atoms: _82  and  _85
REMARK   41  A    between atoms: _85  and  _86
REMARK   42  A    between atoms: _91  and  _93
REMARK   43  A    between atoms: _93  and  _94
REMARK   44  A    between atoms: _93  and  _96
REMARK   45  A    between atoms: _96  and  _97
REMARK   46  A    between atoms: _97  and  _98
REMARK   47  A    between atoms: _101  and  _103
REMARK   48  A    between atoms: _103  and  _104
REMARK   49  A    between atoms: _103  and  _106
REMARK   50  A    between atoms: _106  and  _107
REMARK   51  A    between atoms: _112  and  _113
REMARK   52  A    between atoms: _115  and  _117
REMARK   53  A    between atoms: _117  and  _118
REMARK   54  A    between atoms: _117  and  _120
REMARK   55  A    between atoms: _120  and  _121
REMARK   56  A    between atoms: _125  and  ZN_257
REMARK   57  A    between atoms: _126  and  _128
REMARK   58  A    between atoms: _128  and  _129
REMARK   59  A    between atoms: _128  and  _131
REMARK   60  A    between atoms: _131  and  _132
REMARK   61  A    between atoms: _137  and  _139
REMARK   62  A    between atoms: _139  and  _140
REMARK   63  A    between atoms: _139  and  _142
REMARK   64  A    between atoms: _142  and  _143
REMARK   65  A    between atoms: _148  and  _150
REMARK   66  A    between atoms: _150  and  _151
REMARK   67  A    between atoms: _150  and  _153
REMARK   68  A    between atoms: _153  and  _154
REMARK   69  A    between atoms: _154  and  _155
REMARK   70  A    between atoms: _158  and  _160
REMARK   71  A    between atoms: _160  and  _161
REMARK   72  A    between atoms: _163  and  _165
REMARK   73  A    between atoms: _165  and  _166
REMARK   74  A    between atoms: _165  and  _168
REMARK   75  A    between atoms: _168  and  _169
REMARK   76  A    between atoms: _170  and  ZN_257
REMARK   77  A    between atoms: _174  and  _176
REMARK   78  A    between atoms: _176  and  _177
REMARK   79  A    between atoms: _176  and  _179
REMARK   80  A    between atoms: _182  and  _184
REMARK   81  A    between atoms: _184  and  _185
REMARK   82  A    between atoms: _184  and  _187
REMARK   83  A    between atoms: _187  and  _188
REMARK   84  A    between atoms: _193  and  _195
REMARK   85  A    between atoms: _195  and  _196
REMARK   86  A    between atoms: _198  and  _200
REMARK   87  A    between atoms: _200  and  _201
REMARK   88  A    between atoms: _200  and  _203
REMARK   89  A    between atoms: _203  and  _204
REMARK   90  A    between atoms: _209  and  _211
REMARK   91  A    between atoms: _211  and  _212
REMARK   92  A    between atoms: _211  and  _214
REMARK   93  A    between atoms: _214  and  _215
REMARK   94  A    between atoms: _220  and  _221
REMARK   95  A    between atoms: _223  and  _225
REMARK   96  A    between atoms: _225  and  _226
REMARK   97  A    between atoms: _225  and  _228
REMARK   98  A    between atoms: _231  and  _233
REMARK   99  A    between atoms: _233  and  _234
REMARK  100  A    between atoms: _233  and  _236
REMARK  101  A    between atoms: _236  and  _237
REMARK  102  A    between atoms: _240  and  _242
REMARK  103  A    between atoms: _242  and  _243
REMARK  104  A    between atoms: _242  and  _245
REMARK  105  A    between atoms: _245  and  _246
REMARK  106  A    between atoms: _246  and  _247
REMARK  107  A    between atoms: _247  and  _248
REMARK                            x       y       z     vdW  Elec       q    Type
REMARK                         _______ _______ _______ _____ _____    ______ ____
ROOT
ATOM      1  O   HOH     1     -63.130  37.702 -40.206  0.00  0.00    +0.000 OA
ENDROOT
TORSDOF 0
REMARK  Name = ../refined-set-2016/4dsy/4dsy_pocket.pdb
REMARK  107 active torsions:
REMARK  status: ('A' for Active; 'I' for Inactive)
REMARK    1  A    between atoms: _1  and  _3
REMARK    2  A    between atoms: _3  and  _4
REMARK    3  A    between atoms: _3  and  _6
REMARK    4  A    between atoms: _6  and  _7
REMARK    5  A    between atoms: _7  and  _9
REMARK    6  A    between atoms: _10  and  _12
REMARK    7  A    between atoms: _12  and  _13
REMARK    8  A    between atoms: _15  and  _17
REMARK    9  A    between atoms: _17  and  _18
REMARK   10  A    between atoms: _17  and  _20
REMARK   11  A    between atoms: _20  and  _21
REMARK   12  A    between atoms: _21  and  _23
REMARK   13  A    between atoms: _23  and  ZN_257
REMARK   14  A    between atoms: _24  and  _26
REMARK   15  A    between atoms: _26  and  _27
REMARK   16  A    between atoms: _26  and  _29
REMARK   17  A    between atoms: _29  and  _30
REMARK   18  A    between atoms: _35  and  _36
REMARK   19  A    between atoms: _38  and  _40
REMARK   20  A    between atoms: _40  and  _41
REMARK   21  A    between atoms: _40  and  _43
REMARK   22  A    between atoms: _43  and  _44
REMARK   23  A    between atoms: _47  and  _49
REMARK   24  A    between atoms: _49  and  _50
REMARK   25  A    between atoms: _49  and  _52
REMARK   26  A    between atoms: _52  and  _53
REMARK   27  A    between atoms: _53  and  _54
REMARK   28  A    between atoms: _54  and  _55
REMARK   29  A    between atoms: _64  and  _66
REMARK   30  A    between atoms: _66  and  _67
REMARK   31  A    between atoms: _69  and  _71
REMARK   32  A    between atoms: _71  and  _72
REMARK   33  A    between atoms: _71  and  _74
REMARK   34  A    between atoms: _74  and  _75
REMARK   35  A    between atoms: _75  and  _76
REMARK   36  A    between atoms: _75  and  _77
REMARK   37  A    between atoms: _76  and  ZN_257
REMARK   38  A    between atoms: _80  and  _82
REMARK   39  A    between atoms: _82  and  _83
REMARK   40  A    between atoms: _82  and  _85
REMARK   41  A    between atoms: _85  and  _86
REMARK   42  A    between atoms: _91  and  _93
REMARK   43  A    between atoms: _93  and  _94
REMARK   44  A    between atoms: _93  and  _96
REMARK   45  A    between atoms: _96  and  _97
REMARK   46  A    between atoms: _97  and  _98
REMARK   47  A    between atoms: _101  and  _103
REMARK   48  A    between atoms: _103  and  _104
REMARK   49  A    between atoms: _103  and  _106
REMARK   50  A    between atoms: _106  and  _107
REMARK   51  A    between atoms: _112  and  _113
REMARK   52  A    between atoms: _115  and  _117
REMARK   53  A    between atoms: _117  and  _118
REMARK   54  A    between atoms: _117  and  _120
REMARK   55  A    between atoms: _120  and  _121
REMARK   56  A    between atoms: _125  and  ZN_257
REMARK   57  A    between atoms: _126  and  _128
REMARK   58  A    between atoms: _128  and  _129
REMARK   59  A    between atoms: _128  and  _131
REMARK   60  A    between atoms: _131  and  _132
REMARK   61  A    between atoms: _137  and  _139
REMARK   62  A    between atoms: _139  and  _140
REMARK   63  A    between atoms: _139  and  _142
REMARK   64  A    between atoms: _142  and  _143
REMARK   65  A    between atoms: _148  and  _150
REMARK   66  A    between atoms: _150  and  _151
REMARK   67  A    between atoms: _150  and  _153
REMARK   68  A    between atoms: _153  and  _154
REMARK   69  A    between atoms: _154  and  _155
REMARK   70  A    between atoms: _158  and  _160
REMARK   71  A    between atoms: _160  and  _161
REMARK   72  A    between atoms: _163  and  _165
REMARK   73  A    between atoms: _165  and  _166
REMARK   74  A    between atoms: _165  and  _168
REMARK   75  A    between atoms: _168  and  _169
REMARK   76  A    between atoms: _170  and  ZN_257
REMARK   77  A    between atoms: _174  and  _176
REMARK   78  A    between atoms: _176  and  _177
REMARK   79  A    between atoms: _176  and  _179
REMARK   80  A    between atoms: _182  and  _184
REMARK   81  A    between atoms: _184  and  _185
REMARK   82  A    between atoms: _184  and  _187
REMARK   83  A    between atoms: _187  and  _188
REMARK   84  A    between atoms: _193  and  _195
REMARK   85  A    between atoms: _195  and  _196
REMARK   86  A    between atoms: _198  and  _200
REMARK   87  A    between atoms: _200  and  _201
REMARK   88  A    between atoms: _200  and  _203
REMARK   89  A    between atoms: _203  and  _204
REMARK   90  A    between atoms: _209  and  _211
REMARK   91  A    between atoms: _211  and  _212
REMARK   92  A    between atoms: _211  and  _214
REMARK   93  A    between atoms: _214  and  _215
REMARK   94  A    between atoms: _220  and  _221
REMARK   95  A    between atoms: _223  and  _225
REMARK   96  A    between atoms: _225  and  _226
REMARK   97  A    between atoms: _225  and  _228
REMARK   98  A    between atoms: _231  and  _233
REMARK   99  A    between atoms: _233  and  _234
REMARK  100  A    between atoms: _233  and  _236
REMARK  101  A    between atoms: _236  and  _237
REMARK  102  A    between atoms: _240  and  _242
REMARK  103  A    between atoms: _242  and  _243
REMARK  104  A    between atoms: _242  and  _245
REMARK  105  A    between atoms: _245  and  _246
REMARK  106  A    between atoms: _246  and  _247
REMARK  107  A    between atoms: _247  and  _248
REMARK                            x       y       z     vdW  Elec       q    Type
REMARK                         _______ _______ _______ _____ _____    ______ ____
ROOT
ATOM      1  O   HOH     1     -65.453  27.422 -45.034  0.00  0.00    +0.000 OA
ENDROOT
TORSDOF 0
REMARK  Name = ../refined-set-2016/4dsy/4dsy_pocket.pdb
REMARK  107 active torsions:
REMARK  status: ('A' for Active; 'I' for Inactive)
REMARK    1  A    between atoms: _1  and  _3
REMARK    2  A    between atoms: _3  and  _4
REMARK    3  A    between atoms: _3  and  _6
REMARK    4  A    between atoms: _6  and  _7
REMARK    5  A    between atoms: _7  and  _9
REMARK    6  A    between atoms: _10  and  _12
REMARK    7  A    between atoms: _12  and  _13
REMARK    8  A    between atoms: _15  and  _17
REMARK    9  A    between atoms: _17  and  _18
REMARK   10  A    between atoms: _17  and  _20
REMARK   11  A    between atoms: _20  and  _21
REMARK   12  A    between atoms: _21  and  _23
REMARK   13  A    between atoms: _23  and  ZN_257
REMARK   14  A    between atoms: _24  and  _26
REMARK   15  A    between atoms: _26  and  _27
REMARK   16  A    between atoms: _26  and  _29
REMARK   17  A    between atoms: _29  and  _30
REMARK   18  A    between atoms: _35  and  _36
REMARK   19  A    between atoms: _38  and  _40
REMARK   20  A    between atoms: _40  and  _41
REMARK   21  A    between atoms: _40  and  _43
REMARK   22  A    between atoms: _43  and  _44
REMARK   23  A    between atoms: _47  and  _49
REMARK   24  A    between atoms: _49  and  _50
REMARK   25  A    between atoms: _49  and  _52
REMARK   26  A    between atoms: _52  and  _53
REMARK   27  A    between atoms: _53  and  _54
REMARK   28  A    between atoms: _54  and  _55
REMARK   29  A    between atoms: _64  and  _66
REMARK   30  A    between atoms: _66  and  _67
REMARK   31  A    between atoms: _69  and  _71
REMARK   32  A    between atoms: _71  and  _72
REMARK   33  A    between atoms: _71  and  _74
REMARK   34  A    between atoms: _74  and  _75
REMARK   35  A    between atoms: _75  and  _76
REMARK   36  A    between atoms: _75  and  _77
REMARK   37  A    between atoms: _76  and  ZN_257
REMARK   38  A    between atoms: _80  and  _82
REMARK   39  A    between atoms: _82  and  _83
REMARK   40  A    between atoms: _82  and  _85
REMARK   41  A    between atoms: _85  and  _86
REMARK   42  A    between atoms: _91  and  _93
REMARK   43  A    between atoms: _93  and  _94
REMARK   44  A    between atoms: _93  and  _96
REMARK   45  A    between atoms: _96  and  _97
REMARK   46  A    between atoms: _97  and  _98
REMARK   47  A    between atoms: _101  and  _103
REMARK   48  A    between atoms: _103  and  _104
REMARK   49  A    between atoms: _103  and  _106
REMARK   50  A    between atoms: _106  and  _107
REMARK   51  A    between atoms: _112  and  _113
REMARK   52  A    between atoms: _115  and  _117
REMARK   53  A    between atoms: _117  and  _118
REMARK   54  A    between atoms: _117  and  _120
REMARK   55  A    between atoms: _120  and  _121
REMARK   56  A    between atoms: _125  and  ZN_257
REMARK   57  A    between atoms: _126  and  _128
REMARK   58  A    between atoms: _128  and  _129
REMARK   59  A    between atoms: _128  and  _131
REMARK   60  A    between atoms: _131  and  _132
REMARK   61  A    between atoms: _137  and  _139
REMARK   62  A    between atoms: _139  and  _140
REMARK   63  A    between atoms: _139  and  _142
REMARK   64  A    between atoms: _142  and  _143
REMARK   65  A    between atoms: _148  and  _150
REMARK   66  A    between atoms: _150  and  _151
REMARK   67  A    between atoms: _150  and  _153
REMARK   68  A    between atoms: _153  and  _154
REMARK   69  A    between atoms: _154  and  _155
REMARK   70  A    between atoms: _158  and  _160
REMARK   71  A    between atoms: _160  and  _161
REMARK   72  A    between atoms: _163  and  _165
REMARK   73  A    between atoms: _165  and  _166
REMARK   74  A    between atoms: _165  and  _168
REMARK   75  A    between atoms: _168  and  _169
REMARK   76  A    between atoms: _170  and  ZN_257
REMARK   77  A    between atoms: _174  and  _176
REMARK   78  A    between atoms: _176  and  _177
REMARK   79  A    between atoms: _176  and  _179
REMARK   80  A    between atoms: _182  and  _184
REMARK   81  A    between atoms: _184  and  _185
REMARK   82  A    between atoms: _184  and  _187
REMARK   83  A    between atoms: _187  and  _188
REMARK   84  A    between atoms: _193  and  _195
REMARK   85  A    between atoms: _195  and  _196
REMARK   86  A    between atoms: _198  and  _200
REMARK   87  A    between atoms: _200  and  _201
REMARK   88  A    between atoms: _200  and  _203
REMARK   89  A    between atoms: _203  and  _204
REMARK   90  A    between atoms: _209  and  _211
REMARK   91  A    between atoms: _211  and  _212
REMARK   92  A    between atoms: _211  and  _214
REMARK   93  A    between atoms: _214  and  _215
REMARK   94  A    between atoms: _220  and  _221
REMARK   95  A    between atoms: _223  and  _225
REMARK   96  A    between atoms: _225  and  _226
REMARK   97  A    between atoms: _225  and  _228
REMARK   98  A    between atoms: _231  and  _233
REMARK   99  A    between atoms: _233  and  _234
REMARK  100  A    between atoms: _233  and  _236
REMARK  101  A    between atoms: _236  and  _237
REMARK  102  A    between atoms: _240  and  _242
REMARK  103  A    between atoms: _242  and  _243
REMARK  104  A    between atoms: _242  and  _245
REMARK  105  A    between atoms: _245  and  _246
REMARK  106  A    between atoms: _246  and  _247
REMARK  107  A    between atoms: _247  and  _248
REMARK                            x       y       z     vdW  Elec       q    Type
REMARK                         _______ _______ _______ _____ _____    ______ ____
ROOT
ATOM      1  O   HOH     1     -66.604  37.193 -41.705  0.00  0.00    +0.000 OA
ENDROOT
TORSDOF 0
REMARK  Name = ../refined-set-2016/4dsy/4dsy_pocket.pdb
REMARK  107 active torsions:
REMARK  status: ('A' for Active; 'I' for Inactive)
REMARK    1  A    between atoms: _1  and  _3
REMARK    2  A    between atoms: _3  and  _4
REMARK    3  A    between atoms: _3  and  _6
REMARK    4  A    between atoms: _6  and  _7
REMARK    5  A    between atoms: _7  and  _9
REMARK    6  A    between atoms: _10  and  _12
REMARK    7  A    between atoms: _12  and  _13
REMARK    8  A    between atoms: _15  and  _17
REMARK    9  A    between atoms: _17  and  _18
REMARK   10  A    between atoms: _17  and  _20
REMARK   11  A    between atoms: _20  and  _21
REMARK   12  A    between atoms: _21  and  _23
REMARK   13  A    between atoms: _23  and  ZN_257
REMARK   14  A    between atoms: _24  and  _26
REMARK   15  A    between atoms: _26  and  _27
REMARK   16  A    between atoms: _26  and  _29
REMARK   17  A    between atoms: _29  and  _30
REMARK   18  A    between atoms: _35  and  _36
REMARK   19  A    between atoms: _38  and  _40
REMARK   20  A    between atoms: _40  and  _41
REMARK   21  A    between atoms: _40  and  _43
REMARK   22  A    between atoms: _43  and  _44
REMARK   23  A    between atoms: _47  and  _49
REMARK   24  A    between atoms: _49  and  _50
REMARK   25  A    between atoms: _49  and  _52
REMARK   26  A    between atoms: _52  and  _53
REMARK   27  A    between atoms: _53  and  _54
REMARK   28  A    between atoms: _54  and  _55
REMARK   29  A    between atoms: _64  and  _66
REMARK   30  A    between atoms: _66  and  _67
REMARK   31  A    between atoms: _69  and  _71
REMARK   32  A    between atoms: _71  and  _72
REMARK   33  A    between atoms: _71  and  _74
REMARK   34  A    between atoms: _74  and  _75
REMARK   35  A    between atoms: _75  and  _76
REMARK   36  A    between atoms: _75  and  _77
REMARK   37  A    between atoms: _76  and  ZN_257
REMARK   38  A    between atoms: _80  and  _82
REMARK   39  A    between atoms: _82  and  _83
REMARK   40  A    between atoms: _82  and  _85
REMARK   41  A    between atoms: _85  and  _86
REMARK   42  A    between atoms: _91  and  _93
REMARK   43  A    between atoms: _93  and  _94
REMARK   44  A    between atoms: _93  and  _96
REMARK   45  A    between atoms: _96  and  _97
REMARK   46  A    between atoms: _97  and  _98
REMARK   47  A    between atoms: _101  and  _103
REMARK   48  A    between atoms: _103  and  _104
REMARK   49  A    between atoms: _103  and  _106
REMARK   50  A    between atoms: _106  and  _107
REMARK   51  A    between atoms: _112  and  _113
REMARK   52  A    between atoms: _115  and  _117
REMARK   53  A    between atoms: _117  and  _118
REMARK   54  A    between atoms: _117  and  _120
REMARK   55  A    between atoms: _120  and  _121
REMARK   56  A    between atoms: _125  and  ZN_257
REMARK   57  A    between atoms: _126  and  _128
REMARK   58  A    between atoms: _128  and  _129
REMARK   59  A    between atoms: _128  and  _131
REMARK   60  A    between atoms: _131  and  _132
REMARK   61  A    between atoms: _137  and  _139
REMARK   62  A    between atoms: _139  and  _140
REMARK   63  A    between atoms: _139  and  _142
REMARK   64  A    between atoms: _142  and  _143
REMARK   65  A    between atoms: _148  and  _150
REMARK   66  A    between atoms: _150  and  _151
REMARK   67  A    between atoms: _150  and  _153
REMARK   68  A    between atoms: _153  and  _154
REMARK   69  A    between atoms: _154  and  _155
REMARK   70  A    between atoms: _158  and  _160
REMARK   71  A    between atoms: _160  and  _161
REMARK   72  A    between atoms: _163  and  _165
REMARK   73  A    between atoms: _165  and  _166
REMARK   74  A    between atoms: _165  and  _168
REMARK   75  A    between atoms: _168  and  _169
REMARK   76  A    between atoms: _170  and  ZN_257
REMARK   77  A    between atoms: _174  and  _176
REMARK   78  A    between atoms: _176  and  _177
REMARK   79  A    between atoms: _176  and  _179
REMARK   80  A    between atoms: _182  and  _184
REMARK   81  A    between atoms: _184  and  _185
REMARK   82  A    between atoms: _184  and  _187
REMARK   83  A    between atoms: _187  and  _188
REMARK   84  A    between atoms: _193  and  _195
REMARK   85  A    between atoms: _195  and  _196
REMARK   86  A    between atoms: _198  and  _200
REMARK   87  A    between atoms: _200  and  _201
REMARK   88  A    between atoms: _200  and  _203
REMARK   89  A    between atoms: _203  and  _204
REMARK   90  A    between atoms: _209  and  _211
REMARK   91  A    between atoms: _211  and  _212
REMARK   92  A    between atoms: _211  and  _214
REMARK   93  A    between atoms: _214  and  _215
REMARK   94  A    between atoms: _220  and  _221
REMARK   95  A    between atoms: _223  and  _225
REMARK   96  A    between atoms: _225  and  _226
REMARK   97  A    between atoms: _225  and  _228
REMARK   98  A    between atoms: _231  and  _233
REMARK   99  A    between atoms: _233  and  _234
REMARK  100  A    between atoms: _233  and  _236
REMARK  101  A    between atoms: _236  and  _237
REMARK  102  A    between atoms: _240  and  _242
REMARK  103  A    between atoms: _242  and  _243
REMARK  104  A    between atoms: _242  and  _245
REMARK  105  A    between atoms: _245  and  _246
REMARK  106  A    between atoms: _246  and  _247
REMARK  107  A    between atoms: _247  and  _248
REMARK                            x       y       z     vdW  Elec       q    Type
REMARK                         _______ _______ _______ _____ _____    ______ ____
ROOT
ATOM      1  O   HOH     1     -72.520  27.532 -50.591  0.00  0.00    +0.000 OA
ENDROOT
TORSDOF 0
REMARK  Name = ../refined-set-2016/4dsy/4dsy_pocket.pdb
REMARK  107 active torsions:
REMARK  status: ('A' for Active; 'I' for Inactive)
REMARK    1  A    between atoms: _1  and  _3
REMARK    2  A    between atoms: _3  and  _4
REMARK    3  A    between atoms: _3  and  _6
REMARK    4  A    between atoms: _6  and  _7
REMARK    5  A    between atoms: _7  and  _9
REMARK    6  A    between atoms: _10  and  _12
REMARK    7  A    between atoms: _12  and  _13
REMARK    8  A    between atoms: _15  and  _17
REMARK    9  A    between atoms: _17  and  _18
REMARK   10  A    between atoms: _17  and  _20
REMARK   11  A    between atoms: _20  and  _21
REMARK   12  A    between atoms: _21  and  _23
REMARK   13  A    between atoms: _23  and  ZN_257
REMARK   14  A    between atoms: _24  and  _26
REMARK   15  A    between atoms: _26  and  _27
REMARK   16  A    between atoms: _26  and  _29
REMARK   17  A    between atoms: _29  and  _30
REMARK   18  A    between atoms: _35  and  _36
REMARK   19  A    between atoms: _38  and  _40
REMARK   20  A    between atoms: _40  and  _41
REMARK   21  A    between atoms: _40  and  _43
REMARK   22  A    between atoms: _43  and  _44
REMARK   23  A    between atoms: _47  and  _49
REMARK   24  A    between atoms: _49  and  _50
REMARK   25  A    between atoms: _49  and  _52
REMARK   26  A    between atoms: _52  and  _53
REMARK   27  A    between atoms: _53  and  _54
REMARK   28  A    between atoms: _54  and  _55
REMARK   29  A    between atoms: _64  and  _66
REMARK   30  A    between atoms: _66  and  _67
REMARK   31  A    between atoms: _69  and  _71
REMARK   32  A    between atoms: _71  and  _72
REMARK   33  A    between atoms: _71  and  _74
REMARK   34  A    between atoms: _74  and  _75
REMARK   35  A    between atoms: _75  and  _76
REMARK   36  A    between atoms: _75  and  _77
REMARK   37  A    between atoms: _76  and  ZN_257
REMARK   38  A    between atoms: _80  and  _82
REMARK   39  A    between atoms: _82  and  _83
REMARK   40  A    between atoms: _82  and  _85
REMARK   41  A    between atoms: _85  and  _86
REMARK   42  A    between atoms: _91  and  _93
REMARK   43  A    between atoms: _93  and  _94
REMARK   44  A    between atoms: _93  and  _96
REMARK   45  A    between atoms: _96  and  _97
REMARK   46  A    between atoms: _97  and  _98
REMARK   47  A    between atoms: _101  and  _103
REMARK   48  A    between atoms: _103  and  _104
REMARK   49  A    between atoms: _103  and  _106
REMARK   50  A    between atoms: _106  and  _107
REMARK   51  A    between atoms: _112  and  _113
REMARK   52  A    between atoms: _115  and  _117
REMARK   53  A    between atoms: _117  and  _118
REMARK   54  A    between atoms: _117  and  _120
REMARK   55  A    between atoms: _120  and  _121
REMARK   56  A    between atoms: _125  and  ZN_257
REMARK   57  A    between atoms: _126  and  _128
REMARK   58  A    between atoms: _128  and  _129
REMARK   59  A    between atoms: _128  and  _131
REMARK   60  A    between atoms: _131  and  _132
REMARK   61  A    between atoms: _137  and  _139
REMARK   62  A    between atoms: _139  and  _140
REMARK   63  A    between atoms: _139  and  _142
REMARK   64  A    between atoms: _142  and  _143
REMARK   65  A    between atoms: _148  and  _150
REMARK   66  A    between atoms: _150  and  _151
REMARK   67  A    between atoms: _150  and  _153
REMARK   68  A    between atoms: _153  and  _154
REMARK   69  A    between atoms: _154  and  _155
REMARK   70  A    between atoms: _158  and  _160
REMARK   71  A    between atoms: _160  and  _161
REMARK   72  A    between atoms: _163  and  _165
REMARK   73  A    between atoms: _165  and  _166
REMARK   74  A    between atoms: _165  and  _168
REMARK   75  A    between atoms: _168  and  _169
REMARK   76  A    between atoms: _170  and  ZN_257
REMARK   77  A    between atoms: _174  and  _176
REMARK   78  A    between atoms: _176  and  _177
REMARK   79  A    between atoms: _176  and  _179
REMARK   80  A    between atoms: _182  and  _184
REMARK   81  A    between atoms: _184  and  _185
REMARK   82  A    between atoms: _184  and  _187
REMARK   83  A    between atoms: _187  and  _188
REMARK   84  A    between atoms: _193  and  _195
REMARK   85  A    between atoms: _195  and  _196
REMARK   86  A    between atoms: _198  and  _200
REMARK   87  A    between atoms: _200  and  _201
REMARK   88  A    between atoms: _200  and  _203
REMARK   89  A    between atoms: _203  and  _204
REMARK   90  A    between atoms: _209  and  _211
REMARK   91  A    between atoms: _211  and  _212
REMARK   92  A    between atoms: _211  and  _214
REMARK   93  A    between atoms: _214  and  _215
REMARK   94  A    between atoms: _220  and  _221
REMARK   95  A    between atoms: _223  and  _225
REMARK   96  A    between atoms: _225  and  _226
REMARK   97  A    between atoms: _225  and  _228
REMARK   98  A    between atoms: _231  and  _233
REMARK   99  A    between atoms: _233  and  _234
REMARK  100  A    between atoms: _233  and  _236
REMARK  101  A    between atoms: _236  and  _237
REMARK  102  A    between atoms: _240  and  _242
REMARK  103  A    between atoms: _242  and  _243
REMARK  104  A    between atoms: _242  and  _245
REMARK  105  A    between atoms: _245  and  _246
REMARK  106  A    between atoms: _246  and  _247
REMARK  107  A    between atoms: _247  and  _248
REMARK                            x       y       z     vdW  Elec       q    Type
REMARK                         _______ _______ _______ _____ _____    ______ ____
ROOT
ATOM      1  O   HOH     1     -64.933  35.827 -43.830  0.00  0.00    +0.000 OA
ENDROOT
TORSDOF 0
REMARK  Name = ../refined-set-2016/4dsy/4dsy_pocket.pdb
REMARK  107 active torsions:
REMARK  status: ('A' for Active; 'I' for Inactive)
REMARK    1  A    between atoms: _1  and  _3
REMARK    2  A    between atoms: _3  and  _4
REMARK    3  A    between atoms: _3  and  _6
REMARK    4  A    between atoms: _6  and  _7
REMARK    5  A    between atoms: _7  and  _9
REMARK    6  A    between atoms: _10  and  _12
REMARK    7  A    between atoms: _12  and  _13
REMARK    8  A    between atoms: _15  and  _17
REMARK    9  A    between atoms: _17  and  _18
REMARK   10  A    between atoms: _17  and  _20
REMARK   11  A    between atoms: _20  and  _21
REMARK   12  A    between atoms: _21  and  _23
REMARK   13  A    between atoms: _23  and  ZN_257
REMARK   14  A    between atoms: _24  and  _26
REMARK   15  A    between atoms: _26  and  _27
REMARK   16  A    between atoms: _26  and  _29
REMARK   17  A    between atoms: _29  and  _30
REMARK   18  A    between atoms: _35  and  _36
REMARK   19  A    between atoms: _38  and  _40
REMARK   20  A    between atoms: _40  and  _41
REMARK   21  A    between atoms: _40  and  _43
REMARK   22  A    between atoms: _43  and  _44
REMARK   23  A    between atoms: _47  and  _49
REMARK   24  A    between atoms: _49  and  _50
REMARK   25  A    between atoms: _49  and  _52
REMARK   26  A    between atoms: _52  and  _53
REMARK   27  A    between atoms: _53  and  _54
REMARK   28  A    between atoms: _54  and  _55
REMARK   29  A    between atoms: _64  and  _66
REMARK   30  A    between atoms: _66  and  _67
REMARK   31  A    between atoms: _69  and  _71
REMARK   32  A    between atoms: _71  and  _72
REMARK   33  A    between atoms: _71  and  _74
REMARK   34  A    between atoms: _74  and  _75
REMARK   35  A    between atoms: _75  and  _76
REMARK   36  A    between atoms: _75  and  _77
REMARK   37  A    between atoms: _76  and  ZN_257
REMARK   38  A    between atoms: _80  and  _82
REMARK   39  A    between atoms: _82  and  _83
REMARK   40  A    between atoms: _82  and  _85
REMARK   41  A    between atoms: _85  and  _86
REMARK   42  A    between atoms: _91  and  _93
REMARK   43  A    between atoms: _93  and  _94
REMARK   44  A    between atoms: _93  and  _96
REMARK   45  A    between atoms: _96  and  _97
REMARK   46  A    between atoms: _97  and  _98
REMARK   47  A    between atoms: _101  and  _103
REMARK   48  A    between atoms: _103  and  _104
REMARK   49  A    between atoms: _103  and  _106
REMARK   50  A    between atoms: _106  and  _107
REMARK   51  A    between atoms: _112  and  _113
REMARK   52  A    between atoms: _115  and  _117
REMARK   53  A    between atoms: _117  and  _118
REMARK   54  A    between atoms: _117  and  _120
REMARK   55  A    between atoms: _120  and  _121
REMARK   56  A    between atoms: _125  and  ZN_257
REMARK   57  A    between atoms: _126  and  _128
REMARK   58  A    between atoms: _128  and  _129
REMARK   59  A    between atoms: _128  and  _131
REMARK   60  A    between atoms: _131  and  _132
REMARK   61  A    between atoms: _137  and  _139
REMARK   62  A    between atoms: _139  and  _140
REMARK   63  A    between atoms: _139  and  _142
REMARK   64  A    between atoms: _142  and  _143
REMARK   65  A    between atoms: _148  and  _150
REMARK   66  A    between atoms: _150  and  _151
REMARK   67  A    between atoms: _150  and  _153
REMARK   68  A    between atoms: _153  and  _154
REMARK   69  A    between atoms: _154  and  _155
REMARK   70  A    between atoms: _158  and  _160
REMARK   71  A    between atoms: _160  and  _161
REMARK   72  A    between atoms: _163  and  _165
REMARK   73  A    between atoms: _165  and  _166
REMARK   74  A    between atoms: _165  and  _168
REMARK   75  A    between atoms: _168  and  _169
REMARK   76  A    between atoms: _170  and  ZN_257
REMARK   77  A    between atoms: _174  and  _176
REMARK   78  A    between atoms: _176  and  _177
REMARK   79  A    between atoms: _176  and  _179
REMARK   80  A    between atoms: _182  and  _184
REMARK   81  A    between atoms: _184  and  _185
REMARK   82  A    between atoms: _184  and  _187
REMARK   83  A    between atoms: _187  and  _188
REMARK   84  A    between atoms: _193  and  _195
REMARK   85  A    between atoms: _195  and  _196
REMARK   86  A    between atoms: _198  and  _200
REMARK   87  A    between atoms: _200  and  _201
REMARK   88  A    between atoms: _200  and  _203
REMARK   89  A    between atoms: _203  and  _204
REMARK   90  A    between atoms: _209  and  _211
REMARK   91  A    between atoms: _211  and  _212
REMARK   92  A    between atoms: _211  and  _214
REMARK   93  A    between atoms: _214  and  _215
REMARK   94  A    between atoms: _220  and  _221
REMARK   95  A    between atoms: _223  and  _225
REMARK   96  A    between atoms: _225  and  _226
REMARK   97  A    between atoms: _225  and  _228
REMARK   98  A    between atoms: _231  and  _233
REMARK   99  A    between atoms: _233  and  _234
REMARK  100  A    between atoms: _233  and  _236
REMARK  101  A    between atoms: _236  and  _237
REMARK  102  A    between atoms: _240  and  _242
REMARK  103  A    between atoms: _242  and  _243
REMARK  104  A    between atoms: _242  and  _245
REMARK  105  A    between atoms: _245  and  _246
REMARK  106  A    between atoms: _246  and  _247
REMARK  107  A    between atoms: _247  and  _248
REMARK                            x       y       z     vdW  Elec       q    Type
REMARK                         _______ _______ _______ _____ _____    ______ ____
ROOT
ATOM      1  O   HOH     1     -70.296  29.421 -49.950  0.00  0.00    +0.000 OA
ENDROOT
TORSDOF 0
REMARK  Name = ../refined-set-2016/4dsy/4dsy_pocket.pdb
REMARK  107 active torsions:
REMARK  status: ('A' for Active; 'I' for Inactive)
REMARK    1  A    between atoms: _1  and  _3
REMARK    2  A    between atoms: _3  and  _4
REMARK    3  A    between atoms: _3  and  _6
REMARK    4  A    between atoms: _6  and  _7
REMARK    5  A    between atoms: _7  and  _9
REMARK    6  A    between atoms: _10  and  _12
REMARK    7  A    between atoms: _12  and  _13
REMARK    8  A    between atoms: _15  and  _17
REMARK    9  A    between atoms: _17  and  _18
REMARK   10  A    between atoms: _17  and  _20
REMARK   11  A    between atoms: _20  and  _21
REMARK   12  A    between atoms: _21  and  _23
REMARK   13  A    between atoms: _23  and  ZN_257
REMARK   14  A    between atoms: _24  and  _26
REMARK   15  A    between atoms: _26  and  _27
REMARK   16  A    between atoms: _26  and  _29
REMARK   17  A    between atoms: _29  and  _30
REMARK   18  A    between atoms: _35  and  _36
REMARK   19  A    between atoms: _38  and  _40
REMARK   20  A    between atoms: _40  and  _41
REMARK   21  A    between atoms: _40  and  _43
REMARK   22  A    between atoms: _43  and  _44
REMARK   23  A    between atoms: _47  and  _49
REMARK   24  A    between atoms: _49  and  _50
REMARK   25  A    between atoms: _49  and  _52
REMARK   26  A    between atoms: _52  and  _53
REMARK   27  A    between atoms: _53  and  _54
REMARK   28  A    between atoms: _54  and  _55
REMARK   29  A    between atoms: _64  and  _66
REMARK   30  A    between atoms: _66  and  _67
REMARK   31  A    between atoms: _69  and  _71
REMARK   32  A    between atoms: _71  and  _72
REMARK   33  A    between atoms: _71  and  _74
REMARK   34  A    between atoms: _74  and  _75
REMARK   35  A    between atoms: _75  and  _76
REMARK   36  A    between atoms: _75  and  _77
REMARK   37  A    between atoms: _76  and  ZN_257
REMARK   38  A    between atoms: _80  and  _82
REMARK   39  A    between atoms: _82  and  _83
REMARK   40  A    between atoms: _82  and  _85
REMARK   41  A    between atoms: _85  and  _86
REMARK   42  A    between atoms: _91  and  _93
REMARK   43  A    between atoms: _93  and  _94
REMARK   44  A    between atoms: _93  and  _96
REMARK   45  A    between atoms: _96  and  _97
REMARK   46  A    between atoms: _97  and  _98
REMARK   47  A    between atoms: _101  and  _103
REMARK   48  A    between atoms: _103  and  _104
REMARK   49  A    between atoms: _103  and  _106
REMARK   50  A    between atoms: _106  and  _107
REMARK   51  A    between atoms: _112  and  _113
REMARK   52  A    between atoms: _115  and  _117
REMARK   53  A    between atoms: _117  and  _118
REMARK   54  A    between atoms: _117  and  _120
REMARK   55  A    between atoms: _120  and  _121
REMARK   56  A    between atoms: _125  and  ZN_257
REMARK   57  A    between atoms: _126  and  _128
REMARK   58  A    between atoms: _128  and  _129
REMARK   59  A    between atoms: _128  and  _131
REMARK   60  A    between atoms: _131  and  _132
REMARK   61  A    between atoms: _137  and  _139
REMARK   62  A    between atoms: _139  and  _140
REMARK   63  A    between atoms: _139  and  _142
REMARK   64  A    between atoms: _142  and  _143
REMARK   65  A    between atoms: _148  and  _150
REMARK   66  A    between atoms: _150  and  _151
REMARK   67  A    between atoms: _150  and  _153
REMARK   68  A    between atoms: _153  and  _154
REMARK   69  A    between atoms: _154  and  _155
REMARK   70  A    between atoms: _158  and  _160
REMARK   71  A    between atoms: _160  and  _161
REMARK   72  A    between atoms: _163  and  _165
REMARK   73  A    between atoms: _165  and  _166
REMARK   74  A    between atoms: _165  and  _168
REMARK   75  A    between atoms: _168  and  _169
REMARK   76  A    between atoms: _170  and  ZN_257
REMARK   77  A    between atoms: _174  and  _176
REMARK   78  A    between atoms: _176  and  _177
REMARK   79  A    between atoms: _176  and  _179
REMARK   80  A    between atoms: _182  and  _184
REMARK   81  A    between atoms: _184  and  _185
REMARK   82  A    between atoms: _184  and  _187
REMARK   83  A    between atoms: _187  and  _188
REMARK   84  A    between atoms: _193  and  _195
REMARK   85  A    between atoms: _195  and  _196
REMARK   86  A    between atoms: _198  and  _200
REMARK   87  A    between atoms: _200  and  _201
REMARK   88  A    between atoms: _200  and  _203
REMARK   89  A    between atoms: _203  and  _204
REMARK   90  A    between atoms: _209  and  _211
REMARK   91  A    between atoms: _211  and  _212
REMARK   92  A    between atoms: _211  and  _214
REMARK   93  A    between atoms: _214  and  _215
REMARK   94  A    between atoms: _220  and  _221
REMARK   95  A    between atoms: _223  and  _225
REMARK   96  A    between atoms: _225  and  _226
REMARK   97  A    between atoms: _225  and  _228
REMARK   98  A    between atoms: _231  and  _233
REMARK   99  A    between atoms: _233  and  _234
REMARK  100  A    between atoms: _233  and  _236
REMARK  101  A    between atoms: _236  and  _237
REMARK  102  A    between atoms: _240  and  _242
REMARK  103  A    between atoms: _242  and  _243
REMARK  104  A    between atoms: _242  and  _245
REMARK  105  A    between atoms: _245  and  _246
REMARK  106  A    between atoms: _246  and  _247
REMARK  107  A    between atoms: _247  and  _248
REMARK                            x       y       z     vdW  Elec       q    Type
REMARK                         _______ _______ _______ _____ _____    ______ ____
ROOT
ATOM      1  O   HOH     1     -71.671  37.563 -40.630  0.00  0.00    +0.000 OA
ENDROOT
TORSDOF 0
REMARK  Name = ../refined-set-2016/4dsy/4dsy_pocket.pdb
REMARK  107 active torsions:
REMARK  status: ('A' for Active; 'I' for Inactive)
REMARK    1  A    between atoms: _1  and  _3
REMARK    2  A    between atoms: _3  and  _4
REMARK    3  A    between atoms: _3  and  _6
REMARK    4  A    between atoms: _6  and  _7
REMARK    5  A    between atoms: _7  and  _9
REMARK    6  A    between atoms: _10  and  _12
REMARK    7  A    between atoms: _12  and  _13
REMARK    8  A    between atoms: _15  and  _17
REMARK    9  A    between atoms: _17  and  _18
REMARK   10  A    between atoms: _17  and  _20
REMARK   11  A    between atoms: _20  and  _21
REMARK   12  A    between atoms: _21  and  _23
REMARK   13  A    between atoms: _23  and  ZN_257
REMARK   14  A    between atoms: _24  and  _26
REMARK   15  A    between atoms: _26  and  _27
REMARK   16  A    between atoms: _26  and  _29
REMARK   17  A    between atoms: _29  and  _30
REMARK   18  A    between atoms: _35  and  _36
REMARK   19  A    between atoms: _38  and  _40
REMARK   20  A    between atoms: _40  and  _41
REMARK   21  A    between atoms: _40  and  _43
REMARK   22  A    between atoms: _43  and  _44
REMARK   23  A    between atoms: _47  and  _49
REMARK   24  A    between atoms: _49  and  _50
REMARK   25  A    between atoms: _49  and  _52
REMARK   26  A    between atoms: _52  and  _53
REMARK   27  A    between atoms: _53  and  _54
REMARK   28  A    between atoms: _54  and  _55
REMARK   29  A    between atoms: _64  and  _66
REMARK   30  A    between atoms: _66  and  _67
REMARK   31  A    between atoms: _69  and  _71
REMARK   32  A    between atoms: _71  and  _72
REMARK   33  A    between atoms: _71  and  _74
REMARK   34  A    between atoms: _74  and  _75
REMARK   35  A    between atoms: _75  and  _76
REMARK   36  A    between atoms: _75  and  _77
REMARK   37  A    between atoms: _76  and  ZN_257
REMARK   38  A    between atoms: _80  and  _82
REMARK   39  A    between atoms: _82  and  _83
REMARK   40  A    between atoms: _82  and  _85
REMARK   41  A    between atoms: _85  and  _86
REMARK   42  A    between atoms: _91  and  _93
REMARK   43  A    between atoms: _93  and  _94
REMARK   44  A    between atoms: _93  and  _96
REMARK   45  A    between atoms: _96  and  _97
REMARK   46  A    between atoms: _97  and  _98
REMARK   47  A    between atoms: _101  and  _103
REMARK   48  A    between atoms: _103  and  _104
REMARK   49  A    between atoms: _103  and  _106
REMARK   50  A    between atoms: _106  and  _107
REMARK   51  A    between atoms: _112  and  _113
REMARK   52  A    between atoms: _115  and  _117
REMARK   53  A    between atoms: _117  and  _118
REMARK   54  A    between atoms: _117  and  _120
REMARK   55  A    between atoms: _120  and  _121
REMARK   56  A    between atoms: _125  and  ZN_257
REMARK   57  A    between atoms: _126  and  _128
REMARK   58  A    between atoms: _128  and  _129
REMARK   59  A    between atoms: _128  and  _131
REMARK   60  A    between atoms: _131  and  _132
REMARK   61  A    between atoms: _137  and  _139
REMARK   62  A    between atoms: _139  and  _140
REMARK   63  A    between atoms: _139  and  _142
REMARK   64  A    between atoms: _142  and  _143
REMARK   65  A    between atoms: _148  and  _150
REMARK   66  A    between atoms: _150  and  _151
REMARK   67  A    between atoms: _150  and  _153
REMARK   68  A    between atoms: _153  and  _154
REMARK   69  A    between atoms: _154  and  _155
REMARK   70  A    between atoms: _158  and  _160
REMARK   71  A    between atoms: _160  and  _161
REMARK   72  A    between atoms: _163  and  _165
REMARK   73  A    between atoms: _165  and  _166
REMARK   74  A    between atoms: _165  and  _168
REMARK   75  A    between atoms: _168  and  _169
REMARK   76  A    between atoms: _170  and  ZN_257
REMARK   77  A    between atoms: _174  and  _176
REMARK   78  A    between atoms: _176  and  _177
REMARK   79  A    between atoms: _176  and  _179
REMARK   80  A    between atoms: _182  and  _184
REMARK   81  A    between atoms: _184  and  _185
REMARK   82  A    between atoms: _184  and  _187
REMARK   83  A    between atoms: _187  and  _188
REMARK   84  A    between atoms: _193  and  _195
REMARK   85  A    between atoms: _195  and  _196
REMARK   86  A    between atoms: _198  and  _200
REMARK   87  A    between atoms: _200  and  _201
REMARK   88  A    between atoms: _200  and  _203
REMARK   89  A    between atoms: _203  and  _204
REMARK   90  A    between atoms: _209  and  _211
REMARK   91  A    between atoms: _211  and  _212
REMARK   92  A    between atoms: _211  and  _214
REMARK   93  A    between atoms: _214  and  _215
REMARK   94  A    between atoms: _220  and  _221
REMARK   95  A    between atoms: _223  and  _225
REMARK   96  A    between atoms: _225  and  _226
REMARK   97  A    between atoms: _225  and  _228
REMARK   98  A    between atoms: _231  and  _233
REMARK   99  A    between atoms: _233  and  _234
REMARK  100  A    between atoms: _233  and  _236
REMARK  101  A    between atoms: _236  and  _237
REMARK  102  A    between atoms: _240  and  _242
REMARK  103  A    between atoms: _242  and  _243
REMARK  104  A    between atoms: _242  and  _245
REMARK  105  A    between atoms: _245  and  _246
REMARK  106  A    between atoms: _246  and  _247
REMARK  107  A    between atoms: _247  and  _248
REMARK                            x       y       z     vdW  Elec       q    Type
REMARK                         _______ _______ _______ _____ _____    ______ ____
ROOT
ATOM      1  O   HOH     1     -73.652  29.877 -48.720  0.00  0.00    +0.000 OA
ENDROOT
TORSDOF 0
REMARK  Name = ../refined-set-2016/4dsy/4dsy_pocket.pdb
REMARK  107 active torsions:
REMARK  status: ('A' for Active; 'I' for Inactive)
REMARK    1  A    between atoms: _1  and  _3
REMARK    2  A    between atoms: _3  and  _4
REMARK    3  A    between atoms: _3  and  _6
REMARK    4  A    between atoms: _6  and  _7
REMARK    5  A    between atoms: _7  and  _9
REMARK    6  A    between atoms: _10  and  _12
REMARK    7  A    between atoms: _12  and  _13
REMARK    8  A    between atoms: _15  and  _17
REMARK    9  A    between atoms: _17  and  _18
REMARK   10  A    between atoms: _17  and  _20
REMARK   11  A    between atoms: _20  and  _21
REMARK   12  A    between atoms: _21  and  _23
REMARK   13  A    between atoms: _23  and  ZN_257
REMARK   14  A    between atoms: _24  and  _26
REMARK   15  A    between atoms: _26  and  _27
REMARK   16  A    between atoms: _26  and  _29
REMARK   17  A    between atoms: _29  and  _30
REMARK   18  A    between atoms: _35  and  _36
REMARK   19  A    between atoms: _38  and  _40
REMARK   20  A    between atoms: _40  and  _41
REMARK   21  A    between atoms: _40  and  _43
REMARK   22  A    between atoms: _43  and  _44
REMARK   23  A    between atoms: _47  and  _49
REMARK   24  A    between atoms: _49  and  _50
REMARK   25  A    between atoms: _49  and  _52
REMARK   26  A    between atoms: _52  and  _53
REMARK   27  A    between atoms: _53  and  _54
REMARK   28  A    between atoms: _54  and  _55
REMARK   29  A    between atoms: _64  and  _66
REMARK   30  A    between atoms: _66  and  _67
REMARK   31  A    between atoms: _69  and  _71
REMARK   32  A    between atoms: _71  and  _72
REMARK   33  A    between atoms: _71  and  _74
REMARK   34  A    between atoms: _74  and  _75
REMARK   35  A    between atoms: _75  and  _76
REMARK   36  A    between atoms: _75  and  _77
REMARK   37  A    between atoms: _76  and  ZN_257
REMARK   38  A    between atoms: _80  and  _82
REMARK   39  A    between atoms: _82  and  _83
REMARK   40  A    between atoms: _82  and  _85
REMARK   41  A    between atoms: _85  and  _86
REMARK   42  A    between atoms: _91  and  _93
REMARK   43  A    between atoms: _93  and  _94
REMARK   44  A    between atoms: _93  and  _96
REMARK   45  A    between atoms: _96  and  _97
REMARK   46  A    between atoms: _97  and  _98
REMARK   47  A    between atoms: _101  and  _103
REMARK   48  A    between atoms: _103  and  _104
REMARK   49  A    between atoms: _103  and  _106
REMARK   50  A    between atoms: _106  and  _107
REMARK   51  A    between atoms: _112  and  _113
REMARK   52  A    between atoms: _115  and  _117
REMARK   53  A    between atoms: _117  and  _118
REMARK   54  A    between atoms: _117  and  _120
REMARK   55  A    between atoms: _120  and  _121
REMARK   56  A    between atoms: _125  and  ZN_257
REMARK   57  A    between atoms: _126  and  _128
REMARK   58  A    between atoms: _128  and  _129
REMARK   59  A    between atoms: _128  and  _131
REMARK   60  A    between atoms: _131  and  _132
REMARK   61  A    between atoms: _137  and  _139
REMARK   62  A    between atoms: _139  and  _140
REMARK   63  A    between atoms: _139  and  _142
REMARK   64  A    between atoms: _142  and  _143
REMARK   65  A    between atoms: _148  and  _150
REMARK   66  A    between atoms: _150  and  _151
REMARK   67  A    between atoms: _150  and  _153
REMARK   68  A    between atoms: _153  and  _154
REMARK   69  A    between atoms: _154  and  _155
REMARK   70  A    between atoms: _158  and  _160
REMARK   71  A    between atoms: _160  and  _161
REMARK   72  A    between atoms: _163  and  _165
REMARK   73  A    between atoms: _165  and  _166
REMARK   74  A    between atoms: _165  and  _168
REMARK   75  A    between atoms: _168  and  _169
REMARK   76  A    between atoms: _170  and  ZN_257
REMARK   77  A    between atoms: _174  and  _176
REMARK   78  A    between atoms: _176  and  _177
REMARK   79  A    between atoms: _176  and  _179
REMARK   80  A    between atoms: _182  and  _184
REMARK   81  A    between atoms: _184  and  _185
REMARK   82  A    between atoms: _184  and  _187
REMARK   83  A    between atoms: _187  and  _188
REMARK   84  A    between atoms: _193  and  _195
REMARK   85  A    between atoms: _195  and  _196
REMARK   86  A    between atoms: _198  and  _200
REMARK   87  A    between atoms: _200  and  _201
REMARK   88  A    between atoms: _200  and  _203
REMARK   89  A    between atoms: _203  and  _204
REMARK   90  A    between atoms: _209  and  _211
REMARK   91  A    between atoms: _211  and  _212
REMARK   92  A    between atoms: _211  and  _214
REMARK   93  A    between atoms: _214  and  _215
REMARK   94  A    between atoms: _220  and  _221
REMARK   95  A    between atoms: _223  and  _225
REMARK   96  A    between atoms: _225  and  _226
REMARK   97  A    between atoms: _225  and  _228
REMARK   98  A    between atoms: _231  and  _233
REMARK   99  A    between atoms: _233  and  _234
REMARK  100  A    between atoms: _233  and  _236
REMARK  101  A    between atoms: _236  and  _237
REMARK  102  A    between atoms: _240  and  _242
REMARK  103  A    between atoms: _242  and  _243
REMARK  104  A    between atoms: _242  and  _245
REMARK  105  A    between atoms: _245  and  _246
REMARK  106  A    between atoms: _246  and  _247
REMARK  107  A    between atoms: _247  and  _248
REMARK                            x       y       z     vdW  Elec       q    Type
REMARK                         _______ _______ _______ _____ _____    ______ ____
ROOT
ATOM      1  O   HOH     1     -79.174  29.988 -47.003  0.00  0.00    +0.000 OA
ENDROOT
TORSDOF 0
REMARK  Name = ../refined-set-2016/4dsy/4dsy_pocket.pdb
REMARK  107 active torsions:
REMARK  status: ('A' for Active; 'I' for Inactive)
REMARK    1  A    between atoms: _1  and  _3
REMARK    2  A    between atoms: _3  and  _4
REMARK    3  A    between atoms: _3  and  _6
REMARK    4  A    between atoms: _6  and  _7
REMARK    5  A    between atoms: _7  and  _9
REMARK    6  A    between atoms: _10  and  _12
REMARK    7  A    between atoms: _12  and  _13
REMARK    8  A    between atoms: _15  and  _17
REMARK    9  A    between atoms: _17  and  _18
REMARK   10  A    between atoms: _17  and  _20
REMARK   11  A    between atoms: _20  and  _21
REMARK   12  A    between atoms: _21  and  _23
REMARK   13  A    between atoms: _23  and  ZN_257
REMARK   14  A    between atoms: _24  and  _26
REMARK   15  A    between atoms: _26  and  _27
REMARK   16  A    between atoms: _26  and  _29
REMARK   17  A    between atoms: _29  and  _30
REMARK   18  A    between atoms: _35  and  _36
REMARK   19  A    between atoms: _38  and  _40
REMARK   20  A    between atoms: _40  and  _41
REMARK   21  A    between atoms: _40  and  _43
REMARK   22  A    between atoms: _43  and  _44
REMARK   23  A    between atoms: _47  and  _49
REMARK   24  A    between atoms: _49  and  _50
REMARK   25  A    between atoms: _49  and  _52
REMARK   26  A    between atoms: _52  and  _53
REMARK   27  A    between atoms: _53  and  _54
REMARK   28  A    between atoms: _54  and  _55
REMARK   29  A    between atoms: _64  and  _66
REMARK   30  A    between atoms: _66  and  _67
REMARK   31  A    between atoms: _69  and  _71
REMARK   32  A    between atoms: _71  and  _72
REMARK   33  A    between atoms: _71  and  _74
REMARK   34  A    between atoms: _74  and  _75
REMARK   35  A    between atoms: _75  and  _76
REMARK   36  A    between atoms: _75  and  _77
REMARK   37  A    between atoms: _76  and  ZN_257
REMARK   38  A    between atoms: _80  and  _82
REMARK   39  A    between atoms: _82  and  _83
REMARK   40  A    between atoms: _82  and  _85
REMARK   41  A    between atoms: _85  and  _86
REMARK   42  A    between atoms: _91  and  _93
REMARK   43  A    between atoms: _93  and  _94
REMARK   44  A    between atoms: _93  and  _96
REMARK   45  A    between atoms: _96  and  _97
REMARK   46  A    between atoms: _97  and  _98
REMARK   47  A    between atoms: _101  and  _103
REMARK   48  A    between atoms: _103  and  _104
REMARK   49  A    between atoms: _103  and  _106
REMARK   50  A    between atoms: _106  and  _107
REMARK   51  A    between atoms: _112  and  _113
REMARK   52  A    between atoms: _115  and  _117
REMARK   53  A    between atoms: _117  and  _118
REMARK   54  A    between atoms: _117  and  _120
REMARK   55  A    between atoms: _120  and  _121
REMARK   56  A    between atoms: _125  and  ZN_257
REMARK   57  A    between atoms: _126  and  _128
REMARK   58  A    between atoms: _128  and  _129
REMARK   59  A    between atoms: _128  and  _131
REMARK   60  A    between atoms: _131  and  _132
REMARK   61  A    between atoms: _137  and  _139
REMARK   62  A    between atoms: _139  and  _140
REMARK   63  A    between atoms: _139  and  _142
REMARK   64  A    between atoms: _142  and  _143
REMARK   65  A    between atoms: _148  and  _150
REMARK   66  A    between atoms: _150  and  _151
REMARK   67  A    between atoms: _150  and  _153
REMARK   68  A    between atoms: _153  and  _154
REMARK   69  A    between atoms: _154  and  _155
REMARK   70  A    between atoms: _158  and  _160
REMARK   71  A    between atoms: _160  and  _161
REMARK   72  A    between atoms: _163  and  _165
REMARK   73  A    between atoms: _165  and  _166
REMARK   74  A    between atoms: _165  and  _168
REMARK   75  A    between atoms: _168  and  _169
REMARK   76  A    between atoms: _170  and  ZN_257
REMARK   77  A    between atoms: _174  and  _176
REMARK   78  A    between atoms: _176  and  _177
REMARK   79  A    between atoms: _176  and  _179
REMARK   80  A    between atoms: _182  and  _184
REMARK   81  A    between atoms: _184  and  _185
REMARK   82  A    between atoms: _184  and  _187
REMARK   83  A    between atoms: _187  and  _188
REMARK   84  A    between atoms: _193  and  _195
REMARK   85  A    between atoms: _195  and  _196
REMARK   86  A    between atoms: _198  and  _200
REMARK   87  A    between atoms: _200  and  _201
REMARK   88  A    between atoms: _200  and  _203
REMARK   89  A    between atoms: _203  and  _204
REMARK   90  A    between atoms: _209  and  _211
REMARK   91  A    between atoms: _211  and  _212
REMARK   92  A    between atoms: _211  and  _214
REMARK   93  A    between atoms: _214  and  _215
REMARK   94  A    between atoms: _220  and  _221
REMARK   95  A    between atoms: _223  and  _225
REMARK   96  A    between atoms: _225  and  _226
REMARK   97  A    between atoms: _225  and  _228
REMARK   98  A    between atoms: _231  and  _233
REMARK   99  A    between atoms: _233  and  _234
REMARK  100  A    between atoms: _233  and  _236
REMARK  101  A    between atoms: _236  and  _237
REMARK  102  A    between atoms: _240  and  _242
REMARK  103  A    between atoms: _242  and  _243
REMARK  104  A    between atoms: _242  and  _245
REMARK  105  A    between atoms: _245  and  _246
REMARK  106  A    between atoms: _246  and  _247
REMARK  107  A    between atoms: _247  and  _248
REMARK                            x       y       z     vdW  Elec       q    Type
REMARK                         _______ _______ _______ _____ _____    ______ ____
ROOT
ATOM      1  O   HOH     1     -67.614  31.271 -45.457  0.00  0.00    +0.000 OA
ENDROOT
TORSDOF 0
REMARK  Name = ../refined-set-2016/4dsy/4dsy_pocket.pdb
REMARK  107 active torsions:
REMARK  status: ('A' for Active; 'I' for Inactive)
REMARK    1  A    between atoms: _1  and  _3
REMARK    2  A    between atoms: _3  and  _4
REMARK    3  A    between atoms: _3  and  _6
REMARK    4  A    between atoms: _6  and  _7
REMARK    5  A    between atoms: _7  and  _9
REMARK    6  A    between atoms: _10  and  _12
REMARK    7  A    between atoms: _12  and  _13
REMARK    8  A    between atoms: _15  and  _17
REMARK    9  A    between atoms: _17  and  _18
REMARK   10  A    between atoms: _17  and  _20
REMARK   11  A    between atoms: _20  and  _21
REMARK   12  A    between atoms: _21  and  _23
REMARK   13  A    between atoms: _23  and  ZN_257
REMARK   14  A    between atoms: _24  and  _26
REMARK   15  A    between atoms: _26  and  _27
REMARK   16  A    between atoms: _26  and  _29
REMARK   17  A    between atoms: _29  and  _30
REMARK   18  A    between atoms: _35  and  _36
REMARK   19  A    between atoms: _38  and  _40
REMARK   20  A    between atoms: _40  and  _41
REMARK   21  A    between atoms: _40  and  _43
REMARK   22  A    between atoms: _43  and  _44
REMARK   23  A    between atoms: _47  and  _49
REMARK   24  A    between atoms: _49  and  _50
REMARK   25  A    between atoms: _49  and  _52
REMARK   26  A    between atoms: _52  and  _53
REMARK   27  A    between atoms: _53  and  _54
REMARK   28  A    between atoms: _54  and  _55
REMARK   29  A    between atoms: _64  and  _66
REMARK   30  A    between atoms: _66  and  _67
REMARK   31  A    between atoms: _69  and  _71
REMARK   32  A    between atoms: _71  and  _72
REMARK   33  A    between atoms: _71  and  _74
REMARK   34  A    between atoms: _74  and  _75
REMARK   35  A    between atoms: _75  and  _76
REMARK   36  A    between atoms: _75  and  _77
REMARK   37  A    between atoms: _76  and  ZN_257
REMARK   38  A    between atoms: _80  and  _82
REMARK   39  A    between atoms: _82  and  _83
REMARK   40  A    between atoms: _82  and  _85
REMARK   41  A    between atoms: _85  and  _86
REMARK   42  A    between atoms: _91  and  _93
REMARK   43  A    between atoms: _93  and  _94
REMARK   44  A    between atoms: _93  and  _96
REMARK   45  A    between atoms: _96  and  _97
REMARK   46  A    between atoms: _97  and  _98
REMARK   47  A    between atoms: _101  and  _103
REMARK   48  A    between atoms: _103  and  _104
REMARK   49  A    between atoms: _103  and  _106
REMARK   50  A    between atoms: _106  and  _107
REMARK   51  A    between atoms: _112  and  _113
REMARK   52  A    between atoms: _115  and  _117
REMARK   53  A    between atoms: _117  and  _118
REMARK   54  A    between atoms: _117  and  _120
REMARK   55  A    between atoms: _120  and  _121
REMARK   56  A    between atoms: _125  and  ZN_257
REMARK   57  A    between atoms: _126  and  _128
REMARK   58  A    between atoms: _128  and  _129
REMARK   59  A    between atoms: _128  and  _131
REMARK   60  A    between atoms: _131  and  _132
REMARK   61  A    between atoms: _137  and  _139
REMARK   62  A    between atoms: _139  and  _140
REMARK   63  A    between atoms: _139  and  _142
REMARK   64  A    between atoms: _142  and  _143
REMARK   65  A    between atoms: _148  and  _150
REMARK   66  A    between atoms: _150  and  _151
REMARK   67  A    between atoms: _150  and  _153
REMARK   68  A    between atoms: _153  and  _154
REMARK   69  A    between atoms: _154  and  _155
REMARK   70  A    between atoms: _158  and  _160
REMARK   71  A    between atoms: _160  and  _161
REMARK   72  A    between atoms: _163  and  _165
REMARK   73  A    between atoms: _165  and  _166
REMARK   74  A    between atoms: _165  and  _168
REMARK   75  A    between atoms: _168  and  _169
REMARK   76  A    between atoms: _170  and  ZN_257
REMARK   77  A    between atoms: _174  and  _176
REMARK   78  A    between atoms: _176  and  _177
REMARK   79  A    between atoms: _176  and  _179
REMARK   80  A    between atoms: _182  and  _184
REMARK   81  A    between atoms: _184  and  _185
REMARK   82  A    between atoms: _184  and  _187
REMARK   83  A    between atoms: _187  and  _188
REMARK   84  A    between atoms: _193  and  _195
REMARK   85  A    between atoms: _195  and  _196
REMARK   86  A    between atoms: _198  and  _200
REMARK   87  A    between atoms: _200  and  _201
REMARK   88  A    between atoms: _200  and  _203
REMARK   89  A    between atoms: _203  and  _204
REMARK   90  A    between atoms: _209  and  _211
REMARK   91  A    between atoms: _211  and  _212
REMARK   92  A    between atoms: _211  and  _214
REMARK   93  A    between atoms: _214  and  _215
REMARK   94  A    between atoms: _220  and  _221
REMARK   95  A    between atoms: _223  and  _225
REMARK   96  A    between atoms: _225  and  _226
REMARK   97  A    between atoms: _225  and  _228
REMARK   98  A    between atoms: _231  and  _233
REMARK   99  A    between atoms: _233  and  _234
REMARK  100  A    between atoms: _233  and  _236
REMARK  101  A    between atoms: _236  and  _237
REMARK  102  A    between atoms: _240  and  _242
REMARK  103  A    between atoms: _242  and  _243
REMARK  104  A    between atoms: _242  and  _245
REMARK  105  A    between atoms: _245  and  _246
REMARK  106  A    between atoms: _246  and  _247
REMARK  107  A    between atoms: _247  and  _248
REMARK                            x       y       z     vdW  Elec       q    Type
REMARK                         _______ _______ _______ _____ _____    ______ ____
ROOT
ATOM      1  O   HOH     1     -64.967  32.105 -44.550  0.00  0.00    +0.000 OA
ENDROOT
TORSDOF 0
REMARK  Name = ../refined-set-2016/4dsy/4dsy_pocket.pdb
REMARK  107 active torsions:
REMARK  status: ('A' for Active; 'I' for Inactive)
REMARK    1  A    between atoms: _1  and  _3
REMARK    2  A    between atoms: _3  and  _4
REMARK    3  A    between atoms: _3  and  _6
REMARK    4  A    between atoms: _6  and  _7
REMARK    5  A    between atoms: _7  and  _9
REMARK    6  A    between atoms: _10  and  _12
REMARK    7  A    between atoms: _12  and  _13
REMARK    8  A    between atoms: _15  and  _17
REMARK    9  A    between atoms: _17  and  _18
REMARK   10  A    between atoms: _17  and  _20
REMARK   11  A    between atoms: _20  and  _21
REMARK   12  A    between atoms: _21  and  _23
REMARK   13  A    between atoms: _23  and  ZN_257
REMARK   14  A    between atoms: _24  and  _26
REMARK   15  A    between atoms: _26  and  _27
REMARK   16  A    between atoms: _26  and  _29
REMARK   17  A    between atoms: _29  and  _30
REMARK   18  A    between atoms: _35  and  _36
REMARK   19  A    between atoms: _38  and  _40
REMARK   20  A    between atoms: _40  and  _41
REMARK   21  A    between atoms: _40  and  _43
REMARK   22  A    between atoms: _43  and  _44
REMARK   23  A    between atoms: _47  and  _49
REMARK   24  A    between atoms: _49  and  _50
REMARK   25  A    between atoms: _49  and  _52
REMARK   26  A    between atoms: _52  and  _53
REMARK   27  A    between atoms: _53  and  _54
REMARK   28  A    between atoms: _54  and  _55
REMARK   29  A    between atoms: _64  and  _66
REMARK   30  A    between atoms: _66  and  _67
REMARK   31  A    between atoms: _69  and  _71
REMARK   32  A    between atoms: _71  and  _72
REMARK   33  A    between atoms: _71  and  _74
REMARK   34  A    between atoms: _74  and  _75
REMARK   35  A    between atoms: _75  and  _76
REMARK   36  A    between atoms: _75  and  _77
REMARK   37  A    between atoms: _76  and  ZN_257
REMARK   38  A    between atoms: _80  and  _82
REMARK   39  A    between atoms: _82  and  _83
REMARK   40  A    between atoms: _82  and  _85
REMARK   41  A    between atoms: _85  and  _86
REMARK   42  A    between atoms: _91  and  _93
REMARK   43  A    between atoms: _93  and  _94
REMARK   44  A    between atoms: _93  and  _96
REMARK   45  A    between atoms: _96  and  _97
REMARK   46  A    between atoms: _97  and  _98
REMARK   47  A    between atoms: _101  and  _103
REMARK   48  A    between atoms: _103  and  _104
REMARK   49  A    between atoms: _103  and  _106
REMARK   50  A    between atoms: _106  and  _107
REMARK   51  A    between atoms: _112  and  _113
REMARK   52  A    between atoms: _115  and  _117
REMARK   53  A    between atoms: _117  and  _118
REMARK   54  A    between atoms: _117  and  _120
REMARK   55  A    between atoms: _120  and  _121
REMARK   56  A    between atoms: _125  and  ZN_257
REMARK   57  A    between atoms: _126  and  _128
REMARK   58  A    between atoms: _128  and  _129
REMARK   59  A    between atoms: _128  and  _131
REMARK   60  A    between atoms: _131  and  _132
REMARK   61  A    between atoms: _137  and  _139
REMARK   62  A    between atoms: _139  and  _140
REMARK   63  A    between atoms: _139  and  _142
REMARK   64  A    between atoms: _142  and  _143
REMARK   65  A    between atoms: _148  and  _150
REMARK   66  A    between atoms: _150  and  _151
REMARK   67  A    between atoms: _150  and  _153
REMARK   68  A    between atoms: _153  and  _154
REMARK   69  A    between atoms: _154  and  _155
REMARK   70  A    between atoms: _158  and  _160
REMARK   71  A    between atoms: _160  and  _161
REMARK   72  A    between atoms: _163  and  _165
REMARK   73  A    between atoms: _165  and  _166
REMARK   74  A    between atoms: _165  and  _168
REMARK   75  A    between atoms: _168  and  _169
REMARK   76  A    between atoms: _170  and  ZN_257
REMARK   77  A    between atoms: _174  and  _176
REMARK   78  A    between atoms: _176  and  _177
REMARK   79  A    between atoms: _176  and  _179
REMARK   80  A    between atoms: _182  and  _184
REMARK   81  A    between atoms: _184  and  _185
REMARK   82  A    between atoms: _184  and  _187
REMARK   83  A    between atoms: _187  and  _188
REMARK   84  A    between atoms: _193  and  _195
REMARK   85  A    between atoms: _195  and  _196
REMARK   86  A    between atoms: _198  and  _200
REMARK   87  A    between atoms: _200  and  _201
REMARK   88  A    between atoms: _200  and  _203
REMARK   89  A    between atoms: _203  and  _204
REMARK   90  A    between atoms: _209  and  _211
REMARK   91  A    between atoms: _211  and  _212
REMARK   92  A    between atoms: _211  and  _214
REMARK   93  A    between atoms: _214  and  _215
REMARK   94  A    between atoms: _220  and  _221
REMARK   95  A    between atoms: _223  and  _225
REMARK   96  A    between atoms: _225  and  _226
REMARK   97  A    between atoms: _225  and  _228
REMARK   98  A    between atoms: _231  and  _233
REMARK   99  A    between atoms: _233  and  _234
REMARK  100  A    between atoms: _233  and  _236
REMARK  101  A    between atoms: _236  and  _237
REMARK  102  A    between atoms: _240  and  _242
REMARK  103  A    between atoms: _242  and  _243
REMARK  104  A    between atoms: _242  and  _245
REMARK  105  A    between atoms: _245  and  _246
REMARK  106  A    between atoms: _246  and  _247
REMARK  107  A    between atoms: _247  and  _248
REMARK                            x       y       z     vdW  Elec       q    Type
REMARK                         _______ _______ _______ _____ _____    ______ ____
ROOT
ATOM      1  O   HOH     1     -67.245  33.326 -52.200  0.00  0.00    +0.000 OA
ENDROOT
TORSDOF 0
