REMARK  Name = ../refined-set-2016/2p3b/2p3b_pocket.pdb
REMARK  227 active torsions:
REMARK  status: ('A' for Active; 'I' for Inactive)
REMARK    1  A    between atoms: _1  and  _3
REMARK    2  A    between atoms: _3  and  _4
REMARK    3  A    between atoms: _3  and  _6
REMARK    4  A    between atoms: _6  and  _7
REMARK    5  A    between atoms: _7  and  _8
REMARK    6  A    between atoms: _8  and  _9
REMARK    7  A    between atoms: _18  and  _20
REMARK    8  A    between atoms: _20  and  _21
REMARK    9  A    between atoms: _20  and  _23
REMARK   10  A    between atoms: _23  and  _24
REMARK   11  A    between atoms: _27  and  _29
REMARK   12  A    between atoms: _29  and  _30
REMARK   13  A    between atoms: _29  and  _32
REMARK   14  A    between atoms: _32  and  _33
REMARK   15  A    between atoms: _36  and  _38
REMARK   16  A    between atoms: _38  and  _39
REMARK   17  A    between atoms: _38  and  _41
REMARK   18  A    between atoms: _41  and  _42
REMARK   19  A    between atoms: _45  and  _47
REMARK   20  A    between atoms: _47  and  _48
REMARK   21  A    between atoms: _47  and  _50
REMARK   22  A    between atoms: _50  and  _51
REMARK   23  A    between atoms: _54  and  _56
REMARK   24  A    between atoms: _56  and  _57
REMARK   25  A    between atoms: _59  and  _61
REMARK   26  A    between atoms: _61  and  _62
REMARK   27  A    between atoms: _65  and  _67
REMARK   28  A    between atoms: _67  and  _68
REMARK   29  A    between atoms: _67  and  _70
REMARK   30  A    between atoms: _70  and  _71
REMARK   31  A    between atoms: _74  and  _76
REMARK   32  A    between atoms: _76  and  _77
REMARK   33  A    between atoms: _76  and  _79
REMARK   34  A    between atoms: _79  and  _80
REMARK   35  A    between atoms: _83  and  _85
REMARK   36  A    between atoms: _85  and  _86
REMARK   37  A    between atoms: _85  and  _88
REMARK   38  A    between atoms: _88  and  _89
REMARK   39  A    between atoms: _92  and  _94
REMARK   40  A    between atoms: _94  and  _95
REMARK   41  A    between atoms: _94  and  _97
REMARK   42  A    between atoms: _100  and  _102
REMARK   43  A    between atoms: _102  and  _103
REMARK   44  A    between atoms: _102  and  _105
REMARK   45  A    between atoms: _105  and  _106
REMARK   46  A    between atoms: _106  and  _107
REMARK   47  A    between atoms: _107  and  _108
REMARK   48  A    between atoms: _108  and  _109
REMARK   49  A    between atoms: _113  and  _115
REMARK   50  A    between atoms: _115  and  _116
REMARK   51  A    between atoms: _115  and  _118
REMARK   52  A    between atoms: _118  and  _119
REMARK   53  A    between atoms: _119  and  _120
REMARK   54  A    between atoms: _122  and  _124
REMARK   55  A    between atoms: _124  and  _125
REMARK   56  A    between atoms: _124  and  _127
REMARK   57  A    between atoms: _127  and  _128
REMARK   58  A    between atoms: _131  and  _133
REMARK   59  A    between atoms: _133  and  _134
REMARK   60  A    between atoms: _136  and  _138
REMARK   61  A    between atoms: _138  and  _139
REMARK   62  A    between atoms: _141  and  _143
REMARK   63  A    between atoms: _143  and  _144
REMARK   64  A    between atoms: _143  and  _146
REMARK   65  A    between atoms: _146  and  _147
REMARK   66  A    between atoms: _150  and  _152
REMARK   67  A    between atoms: _152  and  _153
REMARK   68  A    between atoms: _155  and  _157
REMARK   69  A    between atoms: _157  and  _158
REMARK   70  A    between atoms: _160  and  _162
REMARK   71  A    between atoms: _162  and  _163
REMARK   72  A    between atoms: _162  and  _165
REMARK   73  A    between atoms: _165  and  _166
REMARK   74  A    between atoms: _172  and  _174
REMARK   75  A    between atoms: _174  and  _175
REMARK   76  A    between atoms: _174  and  _177
REMARK   77  A    between atoms: _177  and  _178
REMARK   78  A    between atoms: _181  and  _183
REMARK   79  A    between atoms: _183  and  _184
REMARK   80  A    between atoms: _183  and  _186
REMARK   81  A    between atoms: _186  and  _187
REMARK   82  A    between atoms: _191  and  _192
REMARK   83  A    between atoms: _197  and  _199
REMARK   84  A    between atoms: _199  and  _200
REMARK   85  A    between atoms: _199  and  _202
REMARK   86  A    between atoms: _202  and  _203
REMARK   87  A    between atoms: _207  and  _208
REMARK   88  A    between atoms: _213  and  _215
REMARK   89  A    between atoms: _215  and  _216
REMARK   90  A    between atoms: _215  and  _218
REMARK   91  A    between atoms: _221  and  _223
REMARK   92  A    between atoms: _223  and  _224
REMARK   93  A    between atoms: _223  and  _226
REMARK   94  A    between atoms: _226  and  _227
REMARK   95  A    between atoms: _232  and  _234
REMARK   96  A    between atoms: _234  and  _235
REMARK   97  A    between atoms: _234  and  _237
REMARK   98  A    between atoms: _237  and  _238
REMARK   99  A    between atoms: _241  and  _243
REMARK  100  A    between atoms: _243  and  _244
REMARK  101  A    between atoms: _243  and  _246
REMARK  102  A    between atoms: _246  and  _247
REMARK  103  A    between atoms: _250  and  _252
REMARK  104  A    between atoms: _252  and  _253
REMARK  105  A    between atoms: _255  and  _257
REMARK  106  A    between atoms: _257  and  _258
REMARK  107  A    between atoms: _257  and  _260
REMARK  108  A    between atoms: _260  and  _261
REMARK  109  A    between atoms: _261  and  _262
REMARK  110  A    between atoms: _262  and  _263
REMARK  111  A    between atoms: _272  and  _274
REMARK  112  A    between atoms: _274  and  _275
REMARK  113  A    between atoms: _274  and  _277
REMARK  114  A    between atoms: _277  and  _278
REMARK  115  A    between atoms: _283  and  _285
REMARK  116  A    between atoms: _285  and  _286
REMARK  117  A    between atoms: _285  and  _288
REMARK  118  A    between atoms: _288  and  _289
REMARK  119  A    between atoms: _289  and  _290
REMARK  120  A    between atoms: _290  and  _291
REMARK  121  A    between atoms: _300  and  _302
REMARK  122  A    between atoms: _302  and  _303
REMARK  123  A    between atoms: _302  and  _305
REMARK  124  A    between atoms: _305  and  _306
REMARK  125  A    between atoms: _309  and  _311
REMARK  126  A    between atoms: _311  and  _312
REMARK  127  A    between atoms: _311  and  _314
REMARK  128  A    between atoms: _314  and  _315
REMARK  129  A    between atoms: _318  and  _320
REMARK  130  A    between atoms: _320  and  _321
REMARK  131  A    between atoms: _320  and  _323
REMARK  132  A    between atoms: _323  and  _324
REMARK  133  A    between atoms: _327  and  _329
REMARK  134  A    between atoms: _329  and  _330
REMARK  135  A    between atoms: _329  and  _332
REMARK  136  A    between atoms: _332  and  _333
REMARK  137  A    between atoms: _336  and  _338
REMARK  138  A    between atoms: _338  and  _339
REMARK  139  A    between atoms: _341  and  _343
REMARK  140  A    between atoms: _343  and  _344
REMARK  141  A    between atoms: _347  and  _349
REMARK  142  A    between atoms: _349  and  _350
REMARK  143  A    between atoms: _349  and  _352
REMARK  144  A    between atoms: _352  and  _353
REMARK  145  A    between atoms: _356  and  _358
REMARK  146  A    between atoms: _358  and  _359
REMARK  147  A    between atoms: _358  and  _361
REMARK  148  A    between atoms: _361  and  _362
REMARK  149  A    between atoms: _365  and  _367
REMARK  150  A    between atoms: _367  and  _368
REMARK  151  A    between atoms: _367  and  _370
REMARK  152  A    between atoms: _370  and  _371
REMARK  153  A    between atoms: _374  and  _376
REMARK  154  A    between atoms: _376  and  _377
REMARK  155  A    between atoms: _376  and  _379
REMARK  156  A    between atoms: _382  and  _384
REMARK  157  A    between atoms: _384  and  _385
REMARK  158  A    between atoms: _384  and  _387
REMARK  159  A    between atoms: _387  and  _388
REMARK  160  A    between atoms: _388  and  _389
REMARK  161  A    between atoms: _389  and  _390
REMARK  162  A    between atoms: _390  and  _391
REMARK  163  A    between atoms: _395  and  _397
REMARK  164  A    between atoms: _397  and  _398
REMARK  165  A    between atoms: _397  and  _400
REMARK  166  A    between atoms: _400  and  _401
REMARK  167  A    between atoms: _401  and  _402
REMARK  168  A    between atoms: _404  and  _406
REMARK  169  A    between atoms: _406  and  _407
REMARK  170  A    between atoms: _406  and  _409
REMARK  171  A    between atoms: _409  and  _410
REMARK  172  A    between atoms: _413  and  _415
REMARK  173  A    between atoms: _415  and  _416
REMARK  174  A    between atoms: _418  and  _420
REMARK  175  A    between atoms: _420  and  _421
REMARK  176  A    between atoms: _423  and  _425
REMARK  177  A    between atoms: _425  and  _426
REMARK  178  A    between atoms: _425  and  _428
REMARK  179  A    between atoms: _428  and  _429
REMARK  180  A    between atoms: _432  and  _434
REMARK  181  A    between atoms: _434  and  _435
REMARK  182  A    between atoms: _437  and  _439
REMARK  183  A    between atoms: _439  and  _440
REMARK  184  A    between atoms: _442  and  _444
REMARK  185  A    between atoms: _444  and  _445
REMARK  186  A    between atoms: _444  and  _447
REMARK  187  A    between atoms: _447  and  _448
REMARK  188  A    between atoms: _454  and  _456
REMARK  189  A    between atoms: _456  and  _457
REMARK  190  A    between atoms: _456  and  _459
REMARK  191  A    between atoms: _459  and  _460
REMARK  192  A    between atoms: _463  and  _465
REMARK  193  A    between atoms: _465  and  _466
REMARK  194  A    between atoms: _465  and  _468
REMARK  195  A    between atoms: _471  and  _473
REMARK  196  A    between atoms: _473  and  _474
REMARK  197  A    between atoms: _473  and  _476
REMARK  198  A    between atoms: _476  and  _477
REMARK  199  A    between atoms: _481  and  _482
REMARK  200  A    between atoms: _487  and  _489
REMARK  201  A    between atoms: _489  and  _490
REMARK  202  A    between atoms: _489  and  _492
REMARK  203  A    between atoms: _492  and  _493
REMARK  204  A    between atoms: _497  and  _498
REMARK  205  A    between atoms: _503  and  _505
REMARK  206  A    between atoms: _505  and  _506
REMARK  207  A    between atoms: _505  and  _508
REMARK  208  A    between atoms: _511  and  _513
REMARK  209  A    between atoms: _513  and  _514
REMARK  210  A    between atoms: _513  and  _516
REMARK  211  A    between atoms: _516  and  _517
REMARK  212  A    between atoms: _522  and  _524
REMARK  213  A    between atoms: _524  and  _525
REMARK  214  A    between atoms: _524  and  _527
REMARK  215  A    between atoms: _527  and  _528
REMARK  216  A    between atoms: _531  and  _533
REMARK  217  A    between atoms: _533  and  _534
REMARK  218  A    between atoms: _533  and  _536
REMARK  219  A    between atoms: _536  and  _537
REMARK  220  A    between atoms: _540  and  _542
REMARK  221  A    between atoms: _542  and  _543
REMARK  222  A    between atoms: _545  and  _547
REMARK  223  A    between atoms: _547  and  _548
REMARK  224  A    between atoms: _547  and  _550
REMARK  225  A    between atoms: _550  and  _551
REMARK  226  A    between atoms: _551  and  _552
REMARK  227  A    between atoms: _552  and  _553
REMARK                            x       y       z     vdW  Elec       q    Type
REMARK                         _______ _______ _______ _____ _____    ______ ____
ROOT
ATOM      1  NE  ARG A   1      21.879  -8.368  -5.265  0.00  0.00    -0.265 N 
ATOM      2  CZ  ARG A   1      20.609  -8.803  -5.417  0.00  0.00    +0.342 C 
ATOM      3  NH2 ARG A   1      20.158  -9.836  -4.703  0.00  0.00    -0.292 N 
ATOM      4 HH21 ARG A   1      20.785 -10.312  -4.024  0.00  0.00    +0.255 HD
ATOM      5 HH22 ARG A   1      19.179 -10.165  -4.826  0.00  0.00    +0.255 HD
ATOM      6  NH1 ARG A   1      19.785  -8.229  -6.283  0.00  0.00    -0.292 N 
ATOM      7 HH11 ARG A   1      18.811  -8.579  -6.385  0.00  0.00    +0.255 HD
ATOM      8 HH12 ARG A   1      20.113  -7.429  -6.861  0.00  0.00    +0.255 HD
ATOM      9  HE  ARG A   1      22.178  -7.554  -5.840  0.00  0.00    +0.259 HD
ENDROOT
BRANCH   1  10
ATOM     10  CD  ARG A   1      22.885  -8.959  -4.342  0.00  0.00    +0.174 C 
BRANCH  10  11
ATOM     11  CG  ARG A   1      24.242  -8.313  -4.581  0.00  0.00    +0.045 C 
BRANCH  11  12
ATOM     12  CB  ARG A   1      25.418  -9.027  -3.965  0.00  0.00    +0.029 C 
BRANCH  12  13
ATOM     13  CA  ARG A   1      26.764  -8.392  -4.307  0.00  0.00    +0.133 C 
BRANCH  13  14
ATOM     14  N   ARG A   1      27.247  -8.829  -5.617  0.00  0.00    -0.239 NA
ATOM     15  H   ARG A   1      26.668  -9.497  -6.165  0.00  0.00    +0.142 HD
ENDBRANCH  13  14
BRANCH  13  16
ATOM     16  C   ARG A   1      27.803  -8.800  -3.274  0.00  0.00    +0.224 C 
ATOM     17  O   ARG A   1      28.287  -9.944  -3.303  0.00  0.00    -0.287 OA
ENDBRANCH  13  16
ENDBRANCH  12  13
ENDBRANCH  11  12
ENDBRANCH  10  11
ENDBRANCH   1  10
TORSDOF 6
REMARK  Name = ../refined-set-2016/2p3b/2p3b_pocket.pdb
REMARK  227 active torsions:
REMARK  status: ('A' for Active; 'I' for Inactive)
REMARK    1  A    between atoms: _1  and  _3
REMARK    2  A    between atoms: _3  and  _4
REMARK    3  A    between atoms: _3  and  _6
REMARK    4  A    between atoms: _6  and  _7
REMARK    5  A    between atoms: _7  and  _8
REMARK    6  A    between atoms: _8  and  _9
REMARK    7  A    between atoms: _18  and  _20
REMARK    8  A    between atoms: _20  and  _21
REMARK    9  A    between atoms: _20  and  _23
REMARK   10  A    between atoms: _23  and  _24
REMARK   11  A    between atoms: _27  and  _29
REMARK   12  A    between atoms: _29  and  _30
REMARK   13  A    between atoms: _29  and  _32
REMARK   14  A    between atoms: _32  and  _33
REMARK   15  A    between atoms: _36  and  _38
REMARK   16  A    between atoms: _38  and  _39
REMARK   17  A    between atoms: _38  and  _41
REMARK   18  A    between atoms: _41  and  _42
REMARK   19  A    between atoms: _45  and  _47
REMARK   20  A    between atoms: _47  and  _48
REMARK   21  A    between atoms: _47  and  _50
REMARK   22  A    between atoms: _50  and  _51
REMARK   23  A    between atoms: _54  and  _56
REMARK   24  A    between atoms: _56  and  _57
REMARK   25  A    between atoms: _59  and  _61
REMARK   26  A    between atoms: _61  and  _62
REMARK   27  A    between atoms: _65  and  _67
REMARK   28  A    between atoms: _67  and  _68
REMARK   29  A    between atoms: _67  and  _70
REMARK   30  A    between atoms: _70  and  _71
REMARK   31  A    between atoms: _74  and  _76
REMARK   32  A    between atoms: _76  and  _77
REMARK   33  A    between atoms: _76  and  _79
REMARK   34  A    between atoms: _79  and  _80
REMARK   35  A    between atoms: _83  and  _85
REMARK   36  A    between atoms: _85  and  _86
REMARK   37  A    between atoms: _85  and  _88
REMARK   38  A    between atoms: _88  and  _89
REMARK   39  A    between atoms: _92  and  _94
REMARK   40  A    between atoms: _94  and  _95
REMARK   41  A    between atoms: _94  and  _97
REMARK   42  A    between atoms: _100  and  _102
REMARK   43  A    between atoms: _102  and  _103
REMARK   44  A    between atoms: _102  and  _105
REMARK   45  A    between atoms: _105  and  _106
REMARK   46  A    between atoms: _106  and  _107
REMARK   47  A    between atoms: _107  and  _108
REMARK   48  A    between atoms: _108  and  _109
REMARK   49  A    between atoms: _113  and  _115
REMARK   50  A    between atoms: _115  and  _116
REMARK   51  A    between atoms: _115  and  _118
REMARK   52  A    between atoms: _118  and  _119
REMARK   53  A    between atoms: _119  and  _120
REMARK   54  A    between atoms: _122  and  _124
REMARK   55  A    between atoms: _124  and  _125
REMARK   56  A    between atoms: _124  and  _127
REMARK   57  A    between atoms: _127  and  _128
REMARK   58  A    between atoms: _131  and  _133
REMARK   59  A    between atoms: _133  and  _134
REMARK   60  A    between atoms: _136  and  _138
REMARK   61  A    between atoms: _138  and  _139
REMARK   62  A    between atoms: _141  and  _143
REMARK   63  A    between atoms: _143  and  _144
REMARK   64  A    between atoms: _143  and  _146
REMARK   65  A    between atoms: _146  and  _147
REMARK   66  A    between atoms: _150  and  _152
REMARK   67  A    between atoms: _152  and  _153
REMARK   68  A    between atoms: _155  and  _157
REMARK   69  A    between atoms: _157  and  _158
REMARK   70  A    between atoms: _160  and  _162
REMARK   71  A    between atoms: _162  and  _163
REMARK   72  A    between atoms: _162  and  _165
REMARK   73  A    between atoms: _165  and  _166
REMARK   74  A    between atoms: _172  and  _174
REMARK   75  A    between atoms: _174  and  _175
REMARK   76  A    between atoms: _174  and  _177
REMARK   77  A    between atoms: _177  and  _178
REMARK   78  A    between atoms: _181  and  _183
REMARK   79  A    between atoms: _183  and  _184
REMARK   80  A    between atoms: _183  and  _186
REMARK   81  A    between atoms: _186  and  _187
REMARK   82  A    between atoms: _191  and  _192
REMARK   83  A    between atoms: _197  and  _199
REMARK   84  A    between atoms: _199  and  _200
REMARK   85  A    between atoms: _199  and  _202
REMARK   86  A    between atoms: _202  and  _203
REMARK   87  A    between atoms: _207  and  _208
REMARK   88  A    between atoms: _213  and  _215
REMARK   89  A    between atoms: _215  and  _216
REMARK   90  A    between atoms: _215  and  _218
REMARK   91  A    between atoms: _221  and  _223
REMARK   92  A    between atoms: _223  and  _224
REMARK   93  A    between atoms: _223  and  _226
REMARK   94  A    between atoms: _226  and  _227
REMARK   95  A    between atoms: _232  and  _234
REMARK   96  A    between atoms: _234  and  _235
REMARK   97  A    between atoms: _234  and  _237
REMARK   98  A    between atoms: _237  and  _238
REMARK   99  A    between atoms: _241  and  _243
REMARK  100  A    between atoms: _243  and  _244
REMARK  101  A    between atoms: _243  and  _246
REMARK  102  A    between atoms: _246  and  _247
REMARK  103  A    between atoms: _250  and  _252
REMARK  104  A    between atoms: _252  and  _253
REMARK  105  A    between atoms: _255  and  _257
REMARK  106  A    between atoms: _257  and  _258
REMARK  107  A    between atoms: _257  and  _260
REMARK  108  A    between atoms: _260  and  _261
REMARK  109  A    between atoms: _261  and  _262
REMARK  110  A    between atoms: _262  and  _263
REMARK  111  A    between atoms: _272  and  _274
REMARK  112  A    between atoms: _274  and  _275
REMARK  113  A    between atoms: _274  and  _277
REMARK  114  A    between atoms: _277  and  _278
REMARK  115  A    between atoms: _283  and  _285
REMARK  116  A    between atoms: _285  and  _286
REMARK  117  A    between atoms: _285  and  _288
REMARK  118  A    between atoms: _288  and  _289
REMARK  119  A    between atoms: _289  and  _290
REMARK  120  A    between atoms: _290  and  _291
REMARK  121  A    between atoms: _300  and  _302
REMARK  122  A    between atoms: _302  and  _303
REMARK  123  A    between atoms: _302  and  _305
REMARK  124  A    between atoms: _305  and  _306
REMARK  125  A    between atoms: _309  and  _311
REMARK  126  A    between atoms: _311  and  _312
REMARK  127  A    between atoms: _311  and  _314
REMARK  128  A    between atoms: _314  and  _315
REMARK  129  A    between atoms: _318  and  _320
REMARK  130  A    between atoms: _320  and  _321
REMARK  131  A    between atoms: _320  and  _323
REMARK  132  A    between atoms: _323  and  _324
REMARK  133  A    between atoms: _327  and  _329
REMARK  134  A    between atoms: _329  and  _330
REMARK  135  A    between atoms: _329  and  _332
REMARK  136  A    between atoms: _332  and  _333
REMARK  137  A    between atoms: _336  and  _338
REMARK  138  A    between atoms: _338  and  _339
REMARK  139  A    between atoms: _341  and  _343
REMARK  140  A    between atoms: _343  and  _344
REMARK  141  A    between atoms: _347  and  _349
REMARK  142  A    between atoms: _349  and  _350
REMARK  143  A    between atoms: _349  and  _352
REMARK  144  A    between atoms: _352  and  _353
REMARK  145  A    between atoms: _356  and  _358
REMARK  146  A    between atoms: _358  and  _359
REMARK  147  A    between atoms: _358  and  _361
REMARK  148  A    between atoms: _361  and  _362
REMARK  149  A    between atoms: _365  and  _367
REMARK  150  A    between atoms: _367  and  _368
REMARK  151  A    between atoms: _367  and  _370
REMARK  152  A    between atoms: _370  and  _371
REMARK  153  A    between atoms: _374  and  _376
REMARK  154  A    between atoms: _376  and  _377
REMARK  155  A    between atoms: _376  and  _379
REMARK  156  A    between atoms: _382  and  _384
REMARK  157  A    between atoms: _384  and  _385
REMARK  158  A    between atoms: _384  and  _387
REMARK  159  A    between atoms: _387  and  _388
REMARK  160  A    between atoms: _388  and  _389
REMARK  161  A    between atoms: _389  and  _390
REMARK  162  A    between atoms: _390  and  _391
REMARK  163  A    between atoms: _395  and  _397
REMARK  164  A    between atoms: _397  and  _398
REMARK  165  A    between atoms: _397  and  _400
REMARK  166  A    between atoms: _400  and  _401
REMARK  167  A    between atoms: _401  and  _402
REMARK  168  A    between atoms: _404  and  _406
REMARK  169  A    between atoms: _406  and  _407
REMARK  170  A    between atoms: _406  and  _409
REMARK  171  A    between atoms: _409  and  _410
REMARK  172  A    between atoms: _413  and  _415
REMARK  173  A    between atoms: _415  and  _416
REMARK  174  A    between atoms: _418  and  _420
REMARK  175  A    between atoms: _420  and  _421
REMARK  176  A    between atoms: _423  and  _425
REMARK  177  A    between atoms: _425  and  _426
REMARK  178  A    between atoms: _425  and  _428
REMARK  179  A    between atoms: _428  and  _429
REMARK  180  A    between atoms: _432  and  _434
REMARK  181  A    between atoms: _434  and  _435
REMARK  182  A    between atoms: _437  and  _439
REMARK  183  A    between atoms: _439  and  _440
REMARK  184  A    between atoms: _442  and  _444
REMARK  185  A    between atoms: _444  and  _445
REMARK  186  A    between atoms: _444  and  _447
REMARK  187  A    between atoms: _447  and  _448
REMARK  188  A    between atoms: _454  and  _456
REMARK  189  A    between atoms: _456  and  _457
REMARK  190  A    between atoms: _456  and  _459
REMARK  191  A    between atoms: _459  and  _460
REMARK  192  A    between atoms: _463  and  _465
REMARK  193  A    between atoms: _465  and  _466
REMARK  194  A    between atoms: _465  and  _468
REMARK  195  A    between atoms: _471  and  _473
REMARK  196  A    between atoms: _473  and  _474
REMARK  197  A    between atoms: _473  and  _476
REMARK  198  A    between atoms: _476  and  _477
REMARK  199  A    between atoms: _481  and  _482
REMARK  200  A    between atoms: _487  and  _489
REMARK  201  A    between atoms: _489  and  _490
REMARK  202  A    between atoms: _489  and  _492
REMARK  203  A    between atoms: _492  and  _493
REMARK  204  A    between atoms: _497  and  _498
REMARK  205  A    between atoms: _503  and  _505
REMARK  206  A    between atoms: _505  and  _506
REMARK  207  A    between atoms: _505  and  _508
REMARK  208  A    between atoms: _511  and  _513
REMARK  209  A    between atoms: _513  and  _514
REMARK  210  A    between atoms: _513  and  _516
REMARK  211  A    between atoms: _516  and  _517
REMARK  212  A    between atoms: _522  and  _524
REMARK  213  A    between atoms: _524  and  _525
REMARK  214  A    between atoms: _524  and  _527
REMARK  215  A    between atoms: _527  and  _528
REMARK  216  A    between atoms: _531  and  _533
REMARK  217  A    between atoms: _533  and  _534
REMARK  218  A    between atoms: _533  and  _536
REMARK  219  A    between atoms: _536  and  _537
REMARK  220  A    between atoms: _540  and  _542
REMARK  221  A    between atoms: _542  and  _543
REMARK  222  A    between atoms: _545  and  _547
REMARK  223  A    between atoms: _547  and  _548
REMARK  224  A    between atoms: _547  and  _550
REMARK  225  A    between atoms: _550  and  _551
REMARK  226  A    between atoms: _551  and  _552
REMARK  227  A    between atoms: _552  and  _553
REMARK                            x       y       z     vdW  Elec       q    Type
REMARK                         _______ _______ _______ _____ _____    ______ ____
ROOT
ATOM      1  C   GLY A   5      22.734   2.301   3.571  0.00  0.00    +0.243 C 
ATOM      2  N   ALA A   6      23.095   1.402   4.485  0.00  0.00    -0.297 N 
ATOM      3  H   ALA A   6      23.999   0.899   4.376  0.00  0.00    +0.150 HD
ATOM      4  O   GLY A   5      21.647   2.892   3.614  0.00  0.00    -0.273 OA
ENDROOT
BRANCH   2   5
ATOM      5  CA  ALA A   6      22.255   1.111   5.625  0.00  0.00    +0.149 C 
ATOM      6  CB  ALA A   6      22.085  -0.449   5.809  0.00  0.00    +0.031 C 
BRANCH   5   7
ATOM      7  C   ALA A   6      22.809   1.744   6.910  0.00  0.00    +0.241 C 
ATOM      8  N   ASP A   7      22.005   2.572   7.588  0.00  0.00    -0.297 N 
ATOM      9  H   ASP A   7      21.094   2.848   7.169  0.00  0.00    +0.150 HD
ATOM     10  O   ALA A   6      23.941   1.465   7.292  0.00  0.00    -0.273 OA
BRANCH   8  11
ATOM     11  CA  ASP A   7      22.374   3.103   8.909  0.00  0.00    +0.160 C 
BRANCH  11  12
ATOM     12  C   ASP A   7      22.503   1.945   9.902  0.00  0.00    +0.241 C 
ATOM     13  O   ASP A   7      23.437   1.931  10.690  0.00  0.00    -0.273 OA
ATOM     14  N   ASP A   8      21.574   0.989   9.838  0.00  0.00    -0.297 N 
ATOM     15  H   ASP A   8      20.909   1.009   9.039  0.00  0.00    +0.150 HD
BRANCH  14  16
ATOM     16  CA  ASP A   8      21.433  -0.079  10.815  0.00  0.00    +0.160 C 
BRANCH  16  17
ATOM     17  C   ASP A   8      21.635  -1.461  10.213  0.00  0.00    +0.241 C 
ATOM     18  N   THR A   9      21.754  -2.444  11.106  0.00  0.00    -0.295 N 
ATOM     19  H   THR A   9      21.771  -2.198  12.116  0.00  0.00    +0.150 HD
ATOM     20  O   ASP A   8      21.672  -1.647   8.982  0.00  0.00    -0.273 OA
BRANCH  18  21
ATOM     21  CA  THR A   9      21.860  -3.834  10.734  0.00  0.00    +0.176 C 
BRANCH  21  22
ATOM     22  C   THR A   9      20.528  -4.530  10.846  0.00  0.00    +0.243 C 
ATOM     23  O   THR A   9      19.877  -4.452  11.882  0.00  0.00    -0.273 OA
ATOM     24  N   VAL A  10      20.082  -5.141   9.759  0.00  0.00    -0.298 N 
ATOM     25  H   VAL A  10      20.705  -5.221   8.930  0.00  0.00    +0.150 HD
BRANCH  24  26
ATOM     26  CA  VAL A  10      18.731  -5.708   9.695  0.00  0.00    +0.137 C 
BRANCH  26  27
ATOM     27  CB  VAL A  10      17.723  -4.920   8.771  0.00  0.00    +0.026 C 
ATOM     28  CG2 VAL A  10      16.284  -5.312   9.126  0.00  0.00    +0.002 C 
ATOM     29  CG1 VAL A  10      17.887  -3.404   8.844  0.00  0.00    +0.002 C 
ENDBRANCH  26  27
BRANCH  26  30
ATOM     30  C   VAL A  10      18.802  -7.143   9.175  0.00  0.00    +0.227 C 
ATOM     31  O   VAL A  10      19.296  -7.404   8.063  0.00  0.00    -0.286 OA
ENDBRANCH  26  30
ENDBRANCH  24  26
ENDBRANCH  21  22
BRANCH  21  32
ATOM     32  CB  THR A   9      22.891  -4.465  11.632  0.00  0.00    +0.137 C 
ATOM     33  CG2 THR A   9      22.885  -6.039  11.497  0.00  0.00    +0.034 C 
BRANCH  32  34
ATOM     34  OG1 THR A   9      24.175  -4.010  11.165  0.00  0.00    -0.382 OA
ATOM     35  HG1 THR A   9      24.214  -3.022  11.221  0.00  0.00    +0.210 HD
ENDBRANCH  32  34
ENDBRANCH  21  32
ENDBRANCH  18  21
ENDBRANCH  16  17
BRANCH  16  36
ATOM     36  CB  ASP A   8      20.027  -0.036  11.431  0.00  0.00    +0.143 C 
BRANCH  36  37
ATOM     37  CG  ASP A   8      19.715   1.300  12.116  0.00  0.00    +0.367 C 
ATOM     38  OD2 ASP A   8      20.510   1.762  12.955  0.00  0.00    -0.246 OA
ATOM     39  OD1 ASP A   8      18.685   1.956  11.874  0.00  0.00    -0.246 OA
ENDBRANCH  36  37
ENDBRANCH  16  36
ENDBRANCH  14  16
ENDBRANCH  11  12
BRANCH  11  40
ATOM     40  CB  ASP A   7      21.306   4.073   9.469  0.00  0.00    +0.143 C 
BRANCH  40  41
ATOM     41  CG  ASP A   7      21.065   5.269   8.574  0.00  0.00    +0.367 C 
ATOM     42  OD2 ASP A   7      20.002   5.897   8.612  0.00  0.00    -0.246 OA
ATOM     43  OD1 ASP A   7      21.942   5.635   7.752  0.00  0.00    -0.246 OA
ENDBRANCH  40  41
ENDBRANCH  11  40
ENDBRANCH   8  11
ENDBRANCH   5   7
ENDBRANCH   2   5
BRANCH   1  44
ATOM     44  CA  GLY A   5      23.701   2.566   2.423  0.00  0.00    +0.176 C 
BRANCH  44  47
ATOM     45  C   THR A   4      26.031   2.111   3.135  0.00  0.00    +0.243 C 
ATOM     46  O   THR A   4      26.145   3.199   3.725  0.00  0.00    -0.273 OA
ATOM     47  N   GLY A   5      24.941   1.756   2.451  0.00  0.00    -0.295 N 
ATOM     48  H   GLY A   5      24.963   0.867   1.911  0.00  0.00    +0.150 HD
BRANCH  45  49
ATOM     49  CA  THR A   4      27.212   1.134   3.138  0.00  0.00    +0.176 C 
BRANCH  49  52
ATOM     50  C   ASP A   3      26.085  -1.002   3.533  0.00  0.00    +0.241 C 
ATOM     51  O   ASP A   3      25.657  -0.627   4.627  0.00  0.00    -0.273 OA
ATOM     52  N   THR A   4      26.848  -0.225   2.744  0.00  0.00    -0.295 N 
ATOM     53  H   THR A   4      27.186  -0.599   1.834  0.00  0.00    +0.150 HD
BRANCH  50  54
ATOM     54  CA  ASP A   3      25.769  -2.411   3.010  0.00  0.00    +0.160 C 
BRANCH  54  56
ATOM     55  C   LEU A   2      27.287  -4.225   2.887  0.00  0.00    +0.241 C 
ATOM     56  N   ASP A   3      26.604  -3.408   3.653  0.00  0.00    -0.297 N 
ATOM     57  H   ASP A   3      26.659  -3.473   4.689  0.00  0.00    +0.150 HD
ATOM     58  O   LEU A   2      27.454  -3.994   1.689  0.00  0.00    -0.273 OA
BRANCH  55  59
ATOM     59  CA  LEU A   2      27.832  -5.508   3.539  0.00  0.00    +0.149 C 
BRANCH  59  62
ATOM     60  C   LEU A   1      25.911  -6.987   3.337  0.00  0.00    +0.238 C 
ATOM     61  O   LEU A   1      25.367  -6.467   4.340  0.00  0.00    -0.274 OA
ATOM     62  N   LEU A   2      27.133  -6.642   2.934  0.00  0.00    -0.297 N 
ATOM     63  H   LEU A   2      27.597  -7.186   2.179  0.00  0.00    +0.150 HD
BRANCH  60  64
ATOM     64  CA  LEU A   1      25.202  -8.096   2.535  0.00  0.00    +0.145 C 
BRANCH  64  65
ATOM     65  N   LEU A   1      24.668  -9.105   3.420  0.00  0.00    -0.238 NA
ATOM     66  H   LEU A   1      23.682  -9.016   3.737  0.00  0.00    +0.142 HD
ENDBRANCH  64  65
BRANCH  64  67
ATOM     67  CB  LEU A   1      24.014  -7.543   1.745  0.00  0.00    +0.026 C 
BRANCH  67  68
ATOM     68  CG  LEU A   1      24.091  -6.491   0.633  0.00  0.00    +0.002 C 
ATOM     69  CD2 LEU A   1      22.647  -6.126   0.330  0.00  0.00    +0.000 C 
ATOM     70  CD1 LEU A   1      24.709  -7.096  -0.570  0.00  0.00    +0.000 C 
ENDBRANCH  67  68
ENDBRANCH  64  67
ENDBRANCH  60  64
ENDBRANCH  59  62
BRANCH  59  71
ATOM     71  CB  LEU A   2      29.343  -5.638   3.335  0.00  0.00    +0.029 C 
BRANCH  71  72
ATOM     72  CG  LEU A   2      29.993  -6.886   3.977  0.00  0.00    +0.002 C 
ATOM     73  CD2 LEU A   2      29.742  -6.972   5.456  0.00  0.00    +0.000 C 
ATOM     74  CD1 LEU A   2      31.422  -6.824   3.756  0.00  0.00    +0.000 C 
ENDBRANCH  71  72
ENDBRANCH  59  71
ENDBRANCH  55  59
ENDBRANCH  54  56
BRANCH  54  75
ATOM     75  CB  ASP A   3      24.308  -2.816   3.225  0.00  0.00    +0.143 C 
BRANCH  75  76
ATOM     76  CG  ASP A   3      23.333  -1.896   2.570  0.00  0.00    +0.367 C 
ATOM     77  OD2 ASP A   3      22.106  -2.076   2.687  0.00  0.00    -0.246 OA
ATOM     78  OD1 ASP A   3      23.719  -0.931   1.882  0.00  0.00    -0.246 OA
ENDBRANCH  75  76
ENDBRANCH  54  75
ENDBRANCH  50  54
ENDBRANCH  49  52
BRANCH  49  79
ATOM     79  CB  THR A   4      28.363   1.737   2.263  0.00  0.00    +0.137 C 
ATOM     80  CG2 THR A   4      29.675   0.985   2.385  0.00  0.00    +0.034 C 
BRANCH  79  81
ATOM     81  OG1 THR A   4      27.998   1.641   0.881  0.00  0.00    -0.382 OA
ATOM     82  HG1 THR A   4      27.161   2.146   0.726  0.00  0.00    +0.210 HD
ENDBRANCH  79  81
ENDBRANCH  49  79
ENDBRANCH  45  49
ENDBRANCH  44  47
ENDBRANCH   1  44
TORSDOF 35
REMARK  Name = ../refined-set-2016/2p3b/2p3b_pocket.pdb
REMARK  227 active torsions:
REMARK  status: ('A' for Active; 'I' for Inactive)
REMARK    1  A    between atoms: _1  and  _3
REMARK    2  A    between atoms: _3  and  _4
REMARK    3  A    between atoms: _3  and  _6
REMARK    4  A    between atoms: _6  and  _7
REMARK    5  A    between atoms: _7  and  _8
REMARK    6  A    between atoms: _8  and  _9
REMARK    7  A    between atoms: _18  and  _20
REMARK    8  A    between atoms: _20  and  _21
REMARK    9  A    between atoms: _20  and  _23
REMARK   10  A    between atoms: _23  and  _24
REMARK   11  A    between atoms: _27  and  _29
REMARK   12  A    between atoms: _29  and  _30
REMARK   13  A    between atoms: _29  and  _32
REMARK   14  A    between atoms: _32  and  _33
REMARK   15  A    between atoms: _36  and  _38
REMARK   16  A    between atoms: _38  and  _39
REMARK   17  A    between atoms: _38  and  _41
REMARK   18  A    between atoms: _41  and  _42
REMARK   19  A    between atoms: _45  and  _47
REMARK   20  A    between atoms: _47  and  _48
REMARK   21  A    between atoms: _47  and  _50
REMARK   22  A    between atoms: _50  and  _51
REMARK   23  A    between atoms: _54  and  _56
REMARK   24  A    between atoms: _56  and  _57
REMARK   25  A    between atoms: _59  and  _61
REMARK   26  A    between atoms: _61  and  _62
REMARK   27  A    between atoms: _65  and  _67
REMARK   28  A    between atoms: _67  and  _68
REMARK   29  A    between atoms: _67  and  _70
REMARK   30  A    between atoms: _70  and  _71
REMARK   31  A    between atoms: _74  and  _76
REMARK   32  A    between atoms: _76  and  _77
REMARK   33  A    between atoms: _76  and  _79
REMARK   34  A    between atoms: _79  and  _80
REMARK   35  A    between atoms: _83  and  _85
REMARK   36  A    between atoms: _85  and  _86
REMARK   37  A    between atoms: _85  and  _88
REMARK   38  A    between atoms: _88  and  _89
REMARK   39  A    between atoms: _92  and  _94
REMARK   40  A    between atoms: _94  and  _95
REMARK   41  A    between atoms: _94  and  _97
REMARK   42  A    between atoms: _100  and  _102
REMARK   43  A    between atoms: _102  and  _103
REMARK   44  A    between atoms: _102  and  _105
REMARK   45  A    between atoms: _105  and  _106
REMARK   46  A    between atoms: _106  and  _107
REMARK   47  A    between atoms: _107  and  _108
REMARK   48  A    between atoms: _108  and  _109
REMARK   49  A    between atoms: _113  and  _115
REMARK   50  A    between atoms: _115  and  _116
REMARK   51  A    between atoms: _115  and  _118
REMARK   52  A    between atoms: _118  and  _119
REMARK   53  A    between atoms: _119  and  _120
REMARK   54  A    between atoms: _122  and  _124
REMARK   55  A    between atoms: _124  and  _125
REMARK   56  A    between atoms: _124  and  _127
REMARK   57  A    between atoms: _127  and  _128
REMARK   58  A    between atoms: _131  and  _133
REMARK   59  A    between atoms: _133  and  _134
REMARK   60  A    between atoms: _136  and  _138
REMARK   61  A    between atoms: _138  and  _139
REMARK   62  A    between atoms: _141  and  _143
REMARK   63  A    between atoms: _143  and  _144
REMARK   64  A    between atoms: _143  and  _146
REMARK   65  A    between atoms: _146  and  _147
REMARK   66  A    between atoms: _150  and  _152
REMARK   67  A    between atoms: _152  and  _153
REMARK   68  A    between atoms: _155  and  _157
REMARK   69  A    between atoms: _157  and  _158
REMARK   70  A    between atoms: _160  and  _162
REMARK   71  A    between atoms: _162  and  _163
REMARK   72  A    between atoms: _162  and  _165
REMARK   73  A    between atoms: _165  and  _166
REMARK   74  A    between atoms: _172  and  _174
REMARK   75  A    between atoms: _174  and  _175
REMARK   76  A    between atoms: _174  and  _177
REMARK   77  A    between atoms: _177  and  _178
REMARK   78  A    between atoms: _181  and  _183
REMARK   79  A    between atoms: _183  and  _184
REMARK   80  A    between atoms: _183  and  _186
REMARK   81  A    between atoms: _186  and  _187
REMARK   82  A    between atoms: _191  and  _192
REMARK   83  A    between atoms: _197  and  _199
REMARK   84  A    between atoms: _199  and  _200
REMARK   85  A    between atoms: _199  and  _202
REMARK   86  A    between atoms: _202  and  _203
REMARK   87  A    between atoms: _207  and  _208
REMARK   88  A    between atoms: _213  and  _215
REMARK   89  A    between atoms: _215  and  _216
REMARK   90  A    between atoms: _215  and  _218
REMARK   91  A    between atoms: _221  and  _223
REMARK   92  A    between atoms: _223  and  _224
REMARK   93  A    between atoms: _223  and  _226
REMARK   94  A    between atoms: _226  and  _227
REMARK   95  A    between atoms: _232  and  _234
REMARK   96  A    between atoms: _234  and  _235
REMARK   97  A    between atoms: _234  and  _237
REMARK   98  A    between atoms: _237  and  _238
REMARK   99  A    between atoms: _241  and  _243
REMARK  100  A    between atoms: _243  and  _244
REMARK  101  A    between atoms: _243  and  _246
REMARK  102  A    between atoms: _246  and  _247
REMARK  103  A    between atoms: _250  and  _252
REMARK  104  A    between atoms: _252  and  _253
REMARK  105  A    between atoms: _255  and  _257
REMARK  106  A    between atoms: _257  and  _258
REMARK  107  A    between atoms: _257  and  _260
REMARK  108  A    between atoms: _260  and  _261
REMARK  109  A    between atoms: _261  and  _262
REMARK  110  A    between atoms: _262  and  _263
REMARK  111  A    between atoms: _272  and  _274
REMARK  112  A    between atoms: _274  and  _275
REMARK  113  A    between atoms: _274  and  _277
REMARK  114  A    between atoms: _277  and  _278
REMARK  115  A    between atoms: _283  and  _285
REMARK  116  A    between atoms: _285  and  _286
REMARK  117  A    between atoms: _285  and  _288
REMARK  118  A    between atoms: _288  and  _289
REMARK  119  A    between atoms: _289  and  _290
REMARK  120  A    between atoms: _290  and  _291
REMARK  121  A    between atoms: _300  and  _302
REMARK  122  A    between atoms: _302  and  _303
REMARK  123  A    between atoms: _302  and  _305
REMARK  124  A    between atoms: _305  and  _306
REMARK  125  A    between atoms: _309  and  _311
REMARK  126  A    between atoms: _311  and  _312
REMARK  127  A    between atoms: _311  and  _314
REMARK  128  A    between atoms: _314  and  _315
REMARK  129  A    between atoms: _318  and  _320
REMARK  130  A    between atoms: _320  and  _321
REMARK  131  A    between atoms: _320  and  _323
REMARK  132  A    between atoms: _323  and  _324
REMARK  133  A    between atoms: _327  and  _329
REMARK  134  A    between atoms: _329  and  _330
REMARK  135  A    between atoms: _329  and  _332
REMARK  136  A    between atoms: _332  and  _333
REMARK  137  A    between atoms: _336  and  _338
REMARK  138  A    between atoms: _338  and  _339
REMARK  139  A    between atoms: _341  and  _343
REMARK  140  A    between atoms: _343  and  _344
REMARK  141  A    between atoms: _347  and  _349
REMARK  142  A    between atoms: _349  and  _350
REMARK  143  A    between atoms: _349  and  _352
REMARK  144  A    between atoms: _352  and  _353
REMARK  145  A    between atoms: _356  and  _358
REMARK  146  A    between atoms: _358  and  _359
REMARK  147  A    between atoms: _358  and  _361
REMARK  148  A    between atoms: _361  and  _362
REMARK  149  A    between atoms: _365  and  _367
REMARK  150  A    between atoms: _367  and  _368
REMARK  151  A    between atoms: _367  and  _370
REMARK  152  A    between atoms: _370  and  _371
REMARK  153  A    between atoms: _374  and  _376
REMARK  154  A    between atoms: _376  and  _377
REMARK  155  A    between atoms: _376  and  _379
REMARK  156  A    between atoms: _382  and  _384
REMARK  157  A    between atoms: _384  and  _385
REMARK  158  A    between atoms: _384  and  _387
REMARK  159  A    between atoms: _387  and  _388
REMARK  160  A    between atoms: _388  and  _389
REMARK  161  A    between atoms: _389  and  _390
REMARK  162  A    between atoms: _390  and  _391
REMARK  163  A    between atoms: _395  and  _397
REMARK  164  A    between atoms: _397  and  _398
REMARK  165  A    between atoms: _397  and  _400
REMARK  166  A    between atoms: _400  and  _401
REMARK  167  A    between atoms: _401  and  _402
REMARK  168  A    between atoms: _404  and  _406
REMARK  169  A    between atoms: _406  and  _407
REMARK  170  A    between atoms: _406  and  _409
REMARK  171  A    between atoms: _409  and  _410
REMARK  172  A    between atoms: _413  and  _415
REMARK  173  A    between atoms: _415  and  _416
REMARK  174  A    between atoms: _418  and  _420
REMARK  175  A    between atoms: _420  and  _421
REMARK  176  A    between atoms: _423  and  _425
REMARK  177  A    between atoms: _425  and  _426
REMARK  178  A    between atoms: _425  and  _428
REMARK  179  A    between atoms: _428  and  _429
REMARK  180  A    between atoms: _432  and  _434
REMARK  181  A    between atoms: _434  and  _435
REMARK  182  A    between atoms: _437  and  _439
REMARK  183  A    between atoms: _439  and  _440
REMARK  184  A    between atoms: _442  and  _444
REMARK  185  A    between atoms: _444  and  _445
REMARK  186  A    between atoms: _444  and  _447
REMARK  187  A    between atoms: _447  and  _448
REMARK  188  A    between atoms: _454  and  _456
REMARK  189  A    between atoms: _456  and  _457
REMARK  190  A    between atoms: _456  and  _459
REMARK  191  A    between atoms: _459  and  _460
REMARK  192  A    between atoms: _463  and  _465
REMARK  193  A    between atoms: _465  and  _466
REMARK  194  A    between atoms: _465  and  _468
REMARK  195  A    between atoms: _471  and  _473
REMARK  196  A    between atoms: _473  and  _474
REMARK  197  A    between atoms: _473  and  _476
REMARK  198  A    between atoms: _476  and  _477
REMARK  199  A    between atoms: _481  and  _482
REMARK  200  A    between atoms: _487  and  _489
REMARK  201  A    between atoms: _489  and  _490
REMARK  202  A    between atoms: _489  and  _492
REMARK  203  A    between atoms: _492  and  _493
REMARK  204  A    between atoms: _497  and  _498
REMARK  205  A    between atoms: _503  and  _505
REMARK  206  A    between atoms: _505  and  _506
REMARK  207  A    between atoms: _505  and  _508
REMARK  208  A    between atoms: _511  and  _513
REMARK  209  A    between atoms: _513  and  _514
REMARK  210  A    between atoms: _513  and  _516
REMARK  211  A    between atoms: _516  and  _517
REMARK  212  A    between atoms: _522  and  _524
REMARK  213  A    between atoms: _524  and  _525
REMARK  214  A    between atoms: _524  and  _527
REMARK  215  A    between atoms: _527  and  _528
REMARK  216  A    between atoms: _531  and  _533
REMARK  217  A    between atoms: _533  and  _534
REMARK  218  A    between atoms: _533  and  _536
REMARK  219  A    between atoms: _536  and  _537
REMARK  220  A    between atoms: _540  and  _542
REMARK  221  A    between atoms: _542  and  _543
REMARK  222  A    between atoms: _545  and  _547
REMARK  223  A    between atoms: _547  and  _548
REMARK  224  A    between atoms: _547  and  _550
REMARK  225  A    between atoms: _550  and  _551
REMARK  226  A    between atoms: _551  and  _552
REMARK  227  A    between atoms: _552  and  _553
REMARK                            x       y       z     vdW  Elec       q    Type
REMARK                         _______ _______ _______ _____ _____    ______ ____
ROOT
ATOM      1  C   GLY A   5      12.949   2.836   1.354  0.00  0.00    +0.243 C 
ATOM      2  O   GLY A   5      11.953   3.567   1.401  0.00  0.00    -0.273 OA
ATOM      3  N   ILE A   6      13.414   2.313   0.229  0.00  0.00    -0.297 N 
ATOM      4  H   ILE A   6      14.307   1.780   0.252  0.00  0.00    +0.150 HD
ENDROOT
BRANCH   3   5
ATOM      5  CA  ILE A   6      12.715   2.462  -1.034  0.00  0.00    +0.149 C 
BRANCH   5   6
ATOM      6  C   ILE A   6      11.327   1.768  -0.936  0.00  0.00    +0.241 C 
ATOM      7  O   ILE A   6      11.200   0.640  -0.454  0.00  0.00    -0.273 OA
ATOM      8  N   GLY A   7      10.274   2.442  -1.346  0.00  0.00    -0.295 N 
ATOM      9  H   GLY A   7      10.380   3.398  -1.742  0.00  0.00    +0.150 HD
BRANCH   8  10
ATOM     10  CA  GLY A   7       8.949   1.823  -1.236  0.00  0.00    +0.176 C 
BRANCH  10  11
ATOM     11  C   GLY A   7       8.236   1.846   0.115  0.00  0.00    +0.243 C 
ATOM     12  N   GLY A   8       8.891   2.355   1.149  0.00  0.00    -0.295 N 
ATOM     13  H   GLY A   8       9.894   2.609   1.047  0.00  0.00    +0.150 HD
ATOM     14  O   GLY A   7       7.092   1.399   0.217  0.00  0.00    -0.273 OA
BRANCH  12  15
ATOM     15  CA  GLY A   8       8.226   2.562   2.418  0.00  0.00    +0.176 C 
BRANCH  15  16
ATOM     16  C   GLY A   8       8.938   2.174   3.696  0.00  0.00    +0.243 C 
ATOM     17  N   PHE A   9       8.132   1.884   4.708  0.00  0.00    -0.297 N 
ATOM     18  H   PHE A   9       7.105   1.882   4.547  0.00  0.00    +0.150 HD
ATOM     19  O   GLY A   8      10.172   2.104   3.741  0.00  0.00    -0.273 OA
BRANCH  17  20
ATOM     20  CA  PHE A   9       8.631   1.571   6.025  0.00  0.00    +0.153 C 
BRANCH  20  21
ATOM     21  C   PHE A   9       8.309   0.141   6.391  0.00  0.00    +0.241 C 
ATOM     22  N   ILE A  10       9.053  -0.380   7.363  0.00  0.00    -0.298 N 
ATOM     23  H   ILE A  10       9.919   0.117   7.655  0.00  0.00    +0.150 HD
ATOM     24  O   PHE A   9       7.423  -0.477   5.803  0.00  0.00    -0.273 OA
BRANCH  22  25
ATOM     25  CA  ILE A  10       8.690  -1.642   8.042  0.00  0.00    +0.137 C 
BRANCH  25  26
ATOM     26  C   ILE A  10       8.888  -1.532   9.555  0.00  0.00    +0.227 C 
ATOM     27  O   ILE A  10       9.676  -0.716  10.040  0.00  0.00    -0.286 OA
ENDBRANCH  25  26
BRANCH  25  28
ATOM     28  CB  ILE A  10       9.440  -2.923   7.528  0.00  0.00    +0.026 C 
ATOM     29  CG2 ILE A  10       8.976  -3.364   6.127  0.00  0.00    +0.002 C 
BRANCH  28  30
ATOM     30  CG1 ILE A  10      10.966  -2.799   7.652  0.00  0.00    +0.002 C 
ATOM     31  CD1 ILE A  10      11.696  -4.189   7.625  0.00  0.00    +0.000 C 
ENDBRANCH  28  30
ENDBRANCH  25  28
ENDBRANCH  22  25
ENDBRANCH  20  21
BRANCH  20  32
ATOM     32  CB  PHE A   9       8.004   2.507   7.049  0.00  0.00    +0.055 C 
BRANCH  32  33
ATOM     33  CG  PHE A   9       6.557   2.214   7.335  0.00  0.00    -0.020 A 
ATOM     34  CD2 PHE A   9       6.193   1.500   8.478  0.00  0.00    -0.004 A 
ATOM     35  CE2 PHE A   9       4.857   1.233   8.756  0.00  0.00    -0.000 A 
ATOM     36  CZ  PHE A   9       3.867   1.695   7.886  0.00  0.00    -0.000 A 
ATOM     37  CE1 PHE A   9       4.221   2.407   6.751  0.00  0.00    -0.000 A 
ATOM     38  CD1 PHE A   9       5.558   2.668   6.479  0.00  0.00    -0.004 A 
ENDBRANCH  32  33
ENDBRANCH  20  32
ENDBRANCH  17  20
ENDBRANCH  15  16
ENDBRANCH  12  15
ENDBRANCH  10  11
ENDBRANCH   8  10
ENDBRANCH   5   6
BRANCH   5  39
ATOM     39  CB  ILE A   6      13.602   1.917  -2.187  0.00  0.00    +0.027 C 
ATOM     40  CG2 ILE A   6      12.955   0.748  -2.907  0.00  0.00    +0.002 C 
BRANCH  39  41
ATOM     41  CG1 ILE A   6      13.915   3.025  -3.187  0.00  0.00    +0.002 C 
ATOM     42  CD1 ILE A   6      15.312   3.554  -3.120  0.00  0.00    +0.000 C 
ENDBRANCH  39  41
ENDBRANCH   5  39
ENDBRANCH   3   5
BRANCH   1  43
ATOM     43  CA  GLY A   5      13.707   2.469   2.614  0.00  0.00    +0.176 C 
BRANCH  43  46
ATOM     44  C   GLY A   4      13.459   2.842   4.998  0.00  0.00    +0.243 C 
ATOM     45  O   GLY A   4      14.684   2.738   5.221  0.00  0.00    -0.273 OA
ATOM     46  N   GLY A   5      12.908   2.682   3.807  0.00  0.00    -0.295 N 
ATOM     47  H   GLY A   5      11.872   2.710   3.722  0.00  0.00    +0.150 HD
BRANCH  44  48
ATOM     48  CA  GLY A   4      12.481   3.161   6.092  0.00  0.00    +0.176 C 
BRANCH  48  51
ATOM     49  C   ILE A   3      12.364   1.927   8.146  0.00  0.00    +0.241 C 
ATOM     50  O   ILE A   3      11.438   1.271   7.711  0.00  0.00    -0.273 OA
ATOM     51  N   GLY A   4      12.969   2.850   7.428  0.00  0.00    -0.295 N 
ATOM     52  H   GLY A   4      13.792   3.355   7.814  0.00  0.00    +0.150 HD
BRANCH  49  53
ATOM     53  CA  ILE A   3      12.915   1.686   9.521  0.00  0.00    +0.149 C 
BRANCH  53  56
ATOM     54  C   MET A   2      11.673   1.858  11.588  0.00  0.00    +0.241 C 
ATOM     55  O   MET A   2      12.460   2.692  12.023  0.00  0.00    -0.273 OA
ATOM     56  N   ILE A   3      11.864   1.246  10.425  0.00  0.00    -0.297 N 
ATOM     57  H   ILE A   3      11.257   0.445  10.158  0.00  0.00    +0.150 HD
BRANCH  54  58
ATOM     58  CA  MET A   2      10.449   1.452  12.408  0.00  0.00    +0.149 C 
BRANCH  58  61
ATOM     59  C   LYS A   1      10.804   0.233  14.506  0.00  0.00    +0.238 C 
ATOM     60  O   LYS A   1      10.364  -0.803  14.035  0.00  0.00    -0.274 OA
ATOM     61  N   MET A   2      10.832   1.373  13.825  0.00  0.00    -0.297 N 
ATOM     62  H   MET A   2      11.136   2.241  14.312  0.00  0.00    +0.150 HD
BRANCH  59  63
ATOM     63  CA  LYS A   1      11.327   0.262  15.937  0.00  0.00    +0.145 C 
BRANCH  63  64
ATOM     64  N   LYS A   1      10.672  -0.799  16.686  0.00  0.00    -0.238 NA
ATOM     65  H   LYS A   1      10.338  -1.638  16.169  0.00  0.00    +0.142 HD
ENDBRANCH  63  64
BRANCH  63  66
ATOM     66  CB  LYS A   1      12.850   0.085  15.967  0.00  0.00    +0.026 C 
BRANCH  66  67
ATOM     67  CG  LYS A   1      13.620   1.201  15.264  0.00  0.00    -0.000 C 
BRANCH  67  68
ATOM     68  CD  LYS A   1      15.122   0.965  15.251  0.00  0.00    -0.024 C 
BRANCH  68  69
ATOM     69  CE  LYS A   1      15.890   1.955  14.352  0.00  0.00    -0.086 C 
BRANCH  69  70
ATOM     70  NZ  LYS A   1      15.666   3.384  14.700  0.00  0.00    +0.380 N 
ATOM     71  HZ1 LYS A   1      15.974   3.554  15.679  0.00  0.00    -0.089 HD
ATOM     72  HZ2 LYS A   1      14.654   3.607  14.610  0.00  0.00    -0.089 HD
ATOM     73  HZ3 LYS A   1      16.214   3.987  14.054  0.00  0.00    -0.089 HD
ENDBRANCH  69  70
ENDBRANCH  68  69
ENDBRANCH  67  68
ENDBRANCH  66  67
ENDBRANCH  63  66
ENDBRANCH  59  63
ENDBRANCH  58  61
BRANCH  58  74
ATOM     74  CB  MET A   2       9.312   2.459  12.216  0.00  0.00    +0.041 C 
BRANCH  74  75
ATOM     75  CG  MET A   2       8.017   2.126  13.000  0.00  0.00    +0.060 C 
BRANCH  75  76
ATOM     76  SD  MET A   2       6.723   1.371  11.964  0.00  0.00    -0.139 S 
ATOM     77  CE  MET A   2       5.281   1.450  13.063  0.00  0.00    +0.069 C 
ENDBRANCH  75  76
ENDBRANCH  74  75
ENDBRANCH  58  74
ENDBRANCH  54  58
ENDBRANCH  53  56
BRANCH  53  78
ATOM     78  CB  ILE A   3      14.095   0.688   9.434  0.00  0.00    +0.027 C 
ATOM     79  CG2 ILE A   3      14.965   0.777  10.668  0.00  0.00    +0.002 C 
BRANCH  78  80
ATOM     80  CG1 ILE A   3      13.595  -0.735   9.205  0.00  0.00    +0.002 C 
ATOM     81  CD1 ILE A   3      14.545  -1.584   8.378  0.00  0.00    +0.000 C 
ENDBRANCH  78  80
ENDBRANCH  53  78
ENDBRANCH  49  53
ENDBRANCH  48  51
ENDBRANCH  44  48
ENDBRANCH  43  46
ENDBRANCH   1  43
TORSDOF 36
REMARK  Name = ../refined-set-2016/2p3b/2p3b_pocket.pdb
REMARK  227 active torsions:
REMARK  status: ('A' for Active; 'I' for Inactive)
REMARK    1  A    between atoms: _1  and  _3
REMARK    2  A    between atoms: _3  and  _4
REMARK    3  A    between atoms: _3  and  _6
REMARK    4  A    between atoms: _6  and  _7
REMARK    5  A    between atoms: _7  and  _8
REMARK    6  A    between atoms: _8  and  _9
REMARK    7  A    between atoms: _18  and  _20
REMARK    8  A    between atoms: _20  and  _21
REMARK    9  A    between atoms: _20  and  _23
REMARK   10  A    between atoms: _23  and  _24
REMARK   11  A    between atoms: _27  and  _29
REMARK   12  A    between atoms: _29  and  _30
REMARK   13  A    between atoms: _29  and  _32
REMARK   14  A    between atoms: _32  and  _33
REMARK   15  A    between atoms: _36  and  _38
REMARK   16  A    between atoms: _38  and  _39
REMARK   17  A    between atoms: _38  and  _41
REMARK   18  A    between atoms: _41  and  _42
REMARK   19  A    between atoms: _45  and  _47
REMARK   20  A    between atoms: _47  and  _48
REMARK   21  A    between atoms: _47  and  _50
REMARK   22  A    between atoms: _50  and  _51
REMARK   23  A    between atoms: _54  and  _56
REMARK   24  A    between atoms: _56  and  _57
REMARK   25  A    between atoms: _59  and  _61
REMARK   26  A    between atoms: _61  and  _62
REMARK   27  A    between atoms: _65  and  _67
REMARK   28  A    between atoms: _67  and  _68
REMARK   29  A    between atoms: _67  and  _70
REMARK   30  A    between atoms: _70  and  _71
REMARK   31  A    between atoms: _74  and  _76
REMARK   32  A    between atoms: _76  and  _77
REMARK   33  A    between atoms: _76  and  _79
REMARK   34  A    between atoms: _79  and  _80
REMARK   35  A    between atoms: _83  and  _85
REMARK   36  A    between atoms: _85  and  _86
REMARK   37  A    between atoms: _85  and  _88
REMARK   38  A    between atoms: _88  and  _89
REMARK   39  A    between atoms: _92  and  _94
REMARK   40  A    between atoms: _94  and  _95
REMARK   41  A    between atoms: _94  and  _97
REMARK   42  A    between atoms: _100  and  _102
REMARK   43  A    between atoms: _102  and  _103
REMARK   44  A    between atoms: _102  and  _105
REMARK   45  A    between atoms: _105  and  _106
REMARK   46  A    between atoms: _106  and  _107
REMARK   47  A    between atoms: _107  and  _108
REMARK   48  A    between atoms: _108  and  _109
REMARK   49  A    between atoms: _113  and  _115
REMARK   50  A    between atoms: _115  and  _116
REMARK   51  A    between atoms: _115  and  _118
REMARK   52  A    between atoms: _118  and  _119
REMARK   53  A    between atoms: _119  and  _120
REMARK   54  A    between atoms: _122  and  _124
REMARK   55  A    between atoms: _124  and  _125
REMARK   56  A    between atoms: _124  and  _127
REMARK   57  A    between atoms: _127  and  _128
REMARK   58  A    between atoms: _131  and  _133
REMARK   59  A    between atoms: _133  and  _134
REMARK   60  A    between atoms: _136  and  _138
REMARK   61  A    between atoms: _138  and  _139
REMARK   62  A    between atoms: _141  and  _143
REMARK   63  A    between atoms: _143  and  _144
REMARK   64  A    between atoms: _143  and  _146
REMARK   65  A    between atoms: _146  and  _147
REMARK   66  A    between atoms: _150  and  _152
REMARK   67  A    between atoms: _152  and  _153
REMARK   68  A    between atoms: _155  and  _157
REMARK   69  A    between atoms: _157  and  _158
REMARK   70  A    between atoms: _160  and  _162
REMARK   71  A    between atoms: _162  and  _163
REMARK   72  A    between atoms: _162  and  _165
REMARK   73  A    between atoms: _165  and  _166
REMARK   74  A    between atoms: _172  and  _174
REMARK   75  A    between atoms: _174  and  _175
REMARK   76  A    between atoms: _174  and  _177
REMARK   77  A    between atoms: _177  and  _178
REMARK   78  A    between atoms: _181  and  _183
REMARK   79  A    between atoms: _183  and  _184
REMARK   80  A    between atoms: _183  and  _186
REMARK   81  A    between atoms: _186  and  _187
REMARK   82  A    between atoms: _191  and  _192
REMARK   83  A    between atoms: _197  and  _199
REMARK   84  A    between atoms: _199  and  _200
REMARK   85  A    between atoms: _199  and  _202
REMARK   86  A    between atoms: _202  and  _203
REMARK   87  A    between atoms: _207  and  _208
REMARK   88  A    between atoms: _213  and  _215
REMARK   89  A    between atoms: _215  and  _216
REMARK   90  A    between atoms: _215  and  _218
REMARK   91  A    between atoms: _221  and  _223
REMARK   92  A    between atoms: _223  and  _224
REMARK   93  A    between atoms: _223  and  _226
REMARK   94  A    between atoms: _226  and  _227
REMARK   95  A    between atoms: _232  and  _234
REMARK   96  A    between atoms: _234  and  _235
REMARK   97  A    between atoms: _234  and  _237
REMARK   98  A    between atoms: _237  and  _238
REMARK   99  A    between atoms: _241  and  _243
REMARK  100  A    between atoms: _243  and  _244
REMARK  101  A    between atoms: _243  and  _246
REMARK  102  A    between atoms: _246  and  _247
REMARK  103  A    between atoms: _250  and  _252
REMARK  104  A    between atoms: _252  and  _253
REMARK  105  A    between atoms: _255  and  _257
REMARK  106  A    between atoms: _257  and  _258
REMARK  107  A    between atoms: _257  and  _260
REMARK  108  A    between atoms: _260  and  _261
REMARK  109  A    between atoms: _261  and  _262
REMARK  110  A    between atoms: _262  and  _263
REMARK  111  A    between atoms: _272  and  _274
REMARK  112  A    between atoms: _274  and  _275
REMARK  113  A    between atoms: _274  and  _277
REMARK  114  A    between atoms: _277  and  _278
REMARK  115  A    between atoms: _283  and  _285
REMARK  116  A    between atoms: _285  and  _286
REMARK  117  A    between atoms: _285  and  _288
REMARK  118  A    between atoms: _288  and  _289
REMARK  119  A    between atoms: _289  and  _290
REMARK  120  A    between atoms: _290  and  _291
REMARK  121  A    between atoms: _300  and  _302
REMARK  122  A    between atoms: _302  and  _303
REMARK  123  A    between atoms: _302  and  _305
REMARK  124  A    between atoms: _305  and  _306
REMARK  125  A    between atoms: _309  and  _311
REMARK  126  A    between atoms: _311  and  _312
REMARK  127  A    between atoms: _311  and  _314
REMARK  128  A    between atoms: _314  and  _315
REMARK  129  A    between atoms: _318  and  _320
REMARK  130  A    between atoms: _320  and  _321
REMARK  131  A    between atoms: _320  and  _323
REMARK  132  A    between atoms: _323  and  _324
REMARK  133  A    between atoms: _327  and  _329
REMARK  134  A    between atoms: _329  and  _330
REMARK  135  A    between atoms: _329  and  _332
REMARK  136  A    between atoms: _332  and  _333
REMARK  137  A    between atoms: _336  and  _338
REMARK  138  A    between atoms: _338  and  _339
REMARK  139  A    between atoms: _341  and  _343
REMARK  140  A    between atoms: _343  and  _344
REMARK  141  A    between atoms: _347  and  _349
REMARK  142  A    between atoms: _349  and  _350
REMARK  143  A    between atoms: _349  and  _352
REMARK  144  A    between atoms: _352  and  _353
REMARK  145  A    between atoms: _356  and  _358
REMARK  146  A    between atoms: _358  and  _359
REMARK  147  A    between atoms: _358  and  _361
REMARK  148  A    between atoms: _361  and  _362
REMARK  149  A    between atoms: _365  and  _367
REMARK  150  A    between atoms: _367  and  _368
REMARK  151  A    between atoms: _367  and  _370
REMARK  152  A    between atoms: _370  and  _371
REMARK  153  A    between atoms: _374  and  _376
REMARK  154  A    between atoms: _376  and  _377
REMARK  155  A    between atoms: _376  and  _379
REMARK  156  A    between atoms: _382  and  _384
REMARK  157  A    between atoms: _384  and  _385
REMARK  158  A    between atoms: _384  and  _387
REMARK  159  A    between atoms: _387  and  _388
REMARK  160  A    between atoms: _388  and  _389
REMARK  161  A    between atoms: _389  and  _390
REMARK  162  A    between atoms: _390  and  _391
REMARK  163  A    between atoms: _395  and  _397
REMARK  164  A    between atoms: _397  and  _398
REMARK  165  A    between atoms: _397  and  _400
REMARK  166  A    between atoms: _400  and  _401
REMARK  167  A    between atoms: _401  and  _402
REMARK  168  A    between atoms: _404  and  _406
REMARK  169  A    between atoms: _406  and  _407
REMARK  170  A    between atoms: _406  and  _409
REMARK  171  A    between atoms: _409  and  _410
REMARK  172  A    between atoms: _413  and  _415
REMARK  173  A    between atoms: _415  and  _416
REMARK  174  A    between atoms: _418  and  _420
REMARK  175  A    between atoms: _420  and  _421
REMARK  176  A    between atoms: _423  and  _425
REMARK  177  A    between atoms: _425  and  _426
REMARK  178  A    between atoms: _425  and  _428
REMARK  179  A    between atoms: _428  and  _429
REMARK  180  A    between atoms: _432  and  _434
REMARK  181  A    between atoms: _434  and  _435
REMARK  182  A    between atoms: _437  and  _439
REMARK  183  A    between atoms: _439  and  _440
REMARK  184  A    between atoms: _442  and  _444
REMARK  185  A    between atoms: _444  and  _445
REMARK  186  A    between atoms: _444  and  _447
REMARK  187  A    between atoms: _447  and  _448
REMARK  188  A    between atoms: _454  and  _456
REMARK  189  A    between atoms: _456  and  _457
REMARK  190  A    between atoms: _456  and  _459
REMARK  191  A    between atoms: _459  and  _460
REMARK  192  A    between atoms: _463  and  _465
REMARK  193  A    between atoms: _465  and  _466
REMARK  194  A    between atoms: _465  and  _468
REMARK  195  A    between atoms: _471  and  _473
REMARK  196  A    between atoms: _473  and  _474
REMARK  197  A    between atoms: _473  and  _476
REMARK  198  A    between atoms: _476  and  _477
REMARK  199  A    between atoms: _481  and  _482
REMARK  200  A    between atoms: _487  and  _489
REMARK  201  A    between atoms: _489  and  _490
REMARK  202  A    between atoms: _489  and  _492
REMARK  203  A    between atoms: _492  and  _493
REMARK  204  A    between atoms: _497  and  _498
REMARK  205  A    between atoms: _503  and  _505
REMARK  206  A    between atoms: _505  and  _506
REMARK  207  A    between atoms: _505  and  _508
REMARK  208  A    between atoms: _511  and  _513
REMARK  209  A    between atoms: _513  and  _514
REMARK  210  A    between atoms: _513  and  _516
REMARK  211  A    between atoms: _516  and  _517
REMARK  212  A    between atoms: _522  and  _524
REMARK  213  A    between atoms: _524  and  _525
REMARK  214  A    between atoms: _524  and  _527
REMARK  215  A    between atoms: _527  and  _528
REMARK  216  A    between atoms: _531  and  _533
REMARK  217  A    between atoms: _533  and  _534
REMARK  218  A    between atoms: _533  and  _536
REMARK  219  A    between atoms: _536  and  _537
REMARK  220  A    between atoms: _540  and  _542
REMARK  221  A    between atoms: _542  and  _543
REMARK  222  A    between atoms: _545  and  _547
REMARK  223  A    between atoms: _547  and  _548
REMARK  224  A    between atoms: _547  and  _550
REMARK  225  A    between atoms: _550  and  _551
REMARK  226  A    between atoms: _551  and  _552
REMARK  227  A    between atoms: _552  and  _553
REMARK                            x       y       z     vdW  Elec       q    Type
REMARK                         _______ _______ _______ _____ _____    ______ ____
ROOT
ATOM      1  CA  LEU A   1      17.260  -5.272  14.067  0.00  0.00    +0.133 C 
ENDROOT
BRANCH   1   2
ATOM      2  N   LEU A   1      18.695  -5.306  14.281  0.00  0.00    -0.239 NA
ATOM      3  H   LEU A   1      19.323  -5.064  13.488  0.00  0.00    +0.142 HD
ENDBRANCH   1   2
BRANCH   1   4
ATOM      4  C   LEU A   1      16.790  -6.539  13.373  0.00  0.00    +0.224 C 
ATOM      5  O   LEU A   1      17.491  -7.089  12.487  0.00  0.00    -0.287 OA
ENDBRANCH   1   4
BRANCH   1   6
ATOM      6  CB  LEU A   1      16.839  -4.034  13.234  0.00  0.00    +0.025 C 
BRANCH   6   7
ATOM      7  CG  LEU A   1      17.411  -2.691  13.643  0.00  0.00    +0.002 C 
ATOM      8  CD2 LEU A   1      17.017  -2.370  15.089  0.00  0.00    +0.000 C 
ATOM      9  CD1 LEU A   1      16.882  -1.616  12.703  0.00  0.00    +0.000 C 
ENDBRANCH   6   7
ENDBRANCH   1   6
TORSDOF 4
REMARK  Name = ../refined-set-2016/2p3b/2p3b_pocket.pdb
REMARK  227 active torsions:
REMARK  status: ('A' for Active; 'I' for Inactive)
REMARK    1  A    between atoms: _1  and  _3
REMARK    2  A    between atoms: _3  and  _4
REMARK    3  A    between atoms: _3  and  _6
REMARK    4  A    between atoms: _6  and  _7
REMARK    5  A    between atoms: _7  and  _8
REMARK    6  A    between atoms: _8  and  _9
REMARK    7  A    between atoms: _18  and  _20
REMARK    8  A    between atoms: _20  and  _21
REMARK    9  A    between atoms: _20  and  _23
REMARK   10  A    between atoms: _23  and  _24
REMARK   11  A    between atoms: _27  and  _29
REMARK   12  A    between atoms: _29  and  _30
REMARK   13  A    between atoms: _29  and  _32
REMARK   14  A    between atoms: _32  and  _33
REMARK   15  A    between atoms: _36  and  _38
REMARK   16  A    between atoms: _38  and  _39
REMARK   17  A    between atoms: _38  and  _41
REMARK   18  A    between atoms: _41  and  _42
REMARK   19  A    between atoms: _45  and  _47
REMARK   20  A    between atoms: _47  and  _48
REMARK   21  A    between atoms: _47  and  _50
REMARK   22  A    between atoms: _50  and  _51
REMARK   23  A    between atoms: _54  and  _56
REMARK   24  A    between atoms: _56  and  _57
REMARK   25  A    between atoms: _59  and  _61
REMARK   26  A    between atoms: _61  and  _62
REMARK   27  A    between atoms: _65  and  _67
REMARK   28  A    between atoms: _67  and  _68
REMARK   29  A    between atoms: _67  and  _70
REMARK   30  A    between atoms: _70  and  _71
REMARK   31  A    between atoms: _74  and  _76
REMARK   32  A    between atoms: _76  and  _77
REMARK   33  A    between atoms: _76  and  _79
REMARK   34  A    between atoms: _79  and  _80
REMARK   35  A    between atoms: _83  and  _85
REMARK   36  A    between atoms: _85  and  _86
REMARK   37  A    between atoms: _85  and  _88
REMARK   38  A    between atoms: _88  and  _89
REMARK   39  A    between atoms: _92  and  _94
REMARK   40  A    between atoms: _94  and  _95
REMARK   41  A    between atoms: _94  and  _97
REMARK   42  A    between atoms: _100  and  _102
REMARK   43  A    between atoms: _102  and  _103
REMARK   44  A    between atoms: _102  and  _105
REMARK   45  A    between atoms: _105  and  _106
REMARK   46  A    between atoms: _106  and  _107
REMARK   47  A    between atoms: _107  and  _108
REMARK   48  A    between atoms: _108  and  _109
REMARK   49  A    between atoms: _113  and  _115
REMARK   50  A    between atoms: _115  and  _116
REMARK   51  A    between atoms: _115  and  _118
REMARK   52  A    between atoms: _118  and  _119
REMARK   53  A    between atoms: _119  and  _120
REMARK   54  A    between atoms: _122  and  _124
REMARK   55  A    between atoms: _124  and  _125
REMARK   56  A    between atoms: _124  and  _127
REMARK   57  A    between atoms: _127  and  _128
REMARK   58  A    between atoms: _131  and  _133
REMARK   59  A    between atoms: _133  and  _134
REMARK   60  A    between atoms: _136  and  _138
REMARK   61  A    between atoms: _138  and  _139
REMARK   62  A    between atoms: _141  and  _143
REMARK   63  A    between atoms: _143  and  _144
REMARK   64  A    between atoms: _143  and  _146
REMARK   65  A    between atoms: _146  and  _147
REMARK   66  A    between atoms: _150  and  _152
REMARK   67  A    between atoms: _152  and  _153
REMARK   68  A    between atoms: _155  and  _157
REMARK   69  A    between atoms: _157  and  _158
REMARK   70  A    between atoms: _160  and  _162
REMARK   71  A    between atoms: _162  and  _163
REMARK   72  A    between atoms: _162  and  _165
REMARK   73  A    between atoms: _165  and  _166
REMARK   74  A    between atoms: _172  and  _174
REMARK   75  A    between atoms: _174  and  _175
REMARK   76  A    between atoms: _174  and  _177
REMARK   77  A    between atoms: _177  and  _178
REMARK   78  A    between atoms: _181  and  _183
REMARK   79  A    between atoms: _183  and  _184
REMARK   80  A    between atoms: _183  and  _186
REMARK   81  A    between atoms: _186  and  _187
REMARK   82  A    between atoms: _191  and  _192
REMARK   83  A    between atoms: _197  and  _199
REMARK   84  A    between atoms: _199  and  _200
REMARK   85  A    between atoms: _199  and  _202
REMARK   86  A    between atoms: _202  and  _203
REMARK   87  A    between atoms: _207  and  _208
REMARK   88  A    between atoms: _213  and  _215
REMARK   89  A    between atoms: _215  and  _216
REMARK   90  A    between atoms: _215  and  _218
REMARK   91  A    between atoms: _221  and  _223
REMARK   92  A    between atoms: _223  and  _224
REMARK   93  A    between atoms: _223  and  _226
REMARK   94  A    between atoms: _226  and  _227
REMARK   95  A    between atoms: _232  and  _234
REMARK   96  A    between atoms: _234  and  _235
REMARK   97  A    between atoms: _234  and  _237
REMARK   98  A    between atoms: _237  and  _238
REMARK   99  A    between atoms: _241  and  _243
REMARK  100  A    between atoms: _243  and  _244
REMARK  101  A    between atoms: _243  and  _246
REMARK  102  A    between atoms: _246  and  _247
REMARK  103  A    between atoms: _250  and  _252
REMARK  104  A    between atoms: _252  and  _253
REMARK  105  A    between atoms: _255  and  _257
REMARK  106  A    between atoms: _257  and  _258
REMARK  107  A    between atoms: _257  and  _260
REMARK  108  A    between atoms: _260  and  _261
REMARK  109  A    between atoms: _261  and  _262
REMARK  110  A    between atoms: _262  and  _263
REMARK  111  A    between atoms: _272  and  _274
REMARK  112  A    between atoms: _274  and  _275
REMARK  113  A    between atoms: _274  and  _277
REMARK  114  A    between atoms: _277  and  _278
REMARK  115  A    between atoms: _283  and  _285
REMARK  116  A    between atoms: _285  and  _286
REMARK  117  A    between atoms: _285  and  _288
REMARK  118  A    between atoms: _288  and  _289
REMARK  119  A    between atoms: _289  and  _290
REMARK  120  A    between atoms: _290  and  _291
REMARK  121  A    between atoms: _300  and  _302
REMARK  122  A    between atoms: _302  and  _303
REMARK  123  A    between atoms: _302  and  _305
REMARK  124  A    between atoms: _305  and  _306
REMARK  125  A    between atoms: _309  and  _311
REMARK  126  A    between atoms: _311  and  _312
REMARK  127  A    between atoms: _311  and  _314
REMARK  128  A    between atoms: _314  and  _315
REMARK  129  A    between atoms: _318  and  _320
REMARK  130  A    between atoms: _320  and  _321
REMARK  131  A    between atoms: _320  and  _323
REMARK  132  A    between atoms: _323  and  _324
REMARK  133  A    between atoms: _327  and  _329
REMARK  134  A    between atoms: _329  and  _330
REMARK  135  A    between atoms: _329  and  _332
REMARK  136  A    between atoms: _332  and  _333
REMARK  137  A    between atoms: _336  and  _338
REMARK  138  A    between atoms: _338  and  _339
REMARK  139  A    between atoms: _341  and  _343
REMARK  140  A    between atoms: _343  and  _344
REMARK  141  A    between atoms: _347  and  _349
REMARK  142  A    between atoms: _349  and  _350
REMARK  143  A    between atoms: _349  and  _352
REMARK  144  A    between atoms: _352  and  _353
REMARK  145  A    between atoms: _356  and  _358
REMARK  146  A    between atoms: _358  and  _359
REMARK  147  A    between atoms: _358  and  _361
REMARK  148  A    between atoms: _361  and  _362
REMARK  149  A    between atoms: _365  and  _367
REMARK  150  A    between atoms: _367  and  _368
REMARK  151  A    between atoms: _367  and  _370
REMARK  152  A    between atoms: _370  and  _371
REMARK  153  A    between atoms: _374  and  _376
REMARK  154  A    between atoms: _376  and  _377
REMARK  155  A    between atoms: _376  and  _379
REMARK  156  A    between atoms: _382  and  _384
REMARK  157  A    between atoms: _384  and  _385
REMARK  158  A    between atoms: _384  and  _387
REMARK  159  A    between atoms: _387  and  _388
REMARK  160  A    between atoms: _388  and  _389
REMARK  161  A    between atoms: _389  and  _390
REMARK  162  A    between atoms: _390  and  _391
REMARK  163  A    between atoms: _395  and  _397
REMARK  164  A    between atoms: _397  and  _398
REMARK  165  A    between atoms: _397  and  _400
REMARK  166  A    between atoms: _400  and  _401
REMARK  167  A    between atoms: _401  and  _402
REMARK  168  A    between atoms: _404  and  _406
REMARK  169  A    between atoms: _406  and  _407
REMARK  170  A    between atoms: _406  and  _409
REMARK  171  A    between atoms: _409  and  _410
REMARK  172  A    between atoms: _413  and  _415
REMARK  173  A    between atoms: _415  and  _416
REMARK  174  A    between atoms: _418  and  _420
REMARK  175  A    between atoms: _420  and  _421
REMARK  176  A    between atoms: _423  and  _425
REMARK  177  A    between atoms: _425  and  _426
REMARK  178  A    between atoms: _425  and  _428
REMARK  179  A    between atoms: _428  and  _429
REMARK  180  A    between atoms: _432  and  _434
REMARK  181  A    between atoms: _434  and  _435
REMARK  182  A    between atoms: _437  and  _439
REMARK  183  A    between atoms: _439  and  _440
REMARK  184  A    between atoms: _442  and  _444
REMARK  185  A    between atoms: _444  and  _445
REMARK  186  A    between atoms: _444  and  _447
REMARK  187  A    between atoms: _447  and  _448
REMARK  188  A    between atoms: _454  and  _456
REMARK  189  A    between atoms: _456  and  _457
REMARK  190  A    between atoms: _456  and  _459
REMARK  191  A    between atoms: _459  and  _460
REMARK  192  A    between atoms: _463  and  _465
REMARK  193  A    between atoms: _465  and  _466
REMARK  194  A    between atoms: _465  and  _468
REMARK  195  A    between atoms: _471  and  _473
REMARK  196  A    between atoms: _473  and  _474
REMARK  197  A    between atoms: _473  and  _476
REMARK  198  A    between atoms: _476  and  _477
REMARK  199  A    between atoms: _481  and  _482
REMARK  200  A    between atoms: _487  and  _489
REMARK  201  A    between atoms: _489  and  _490
REMARK  202  A    between atoms: _489  and  _492
REMARK  203  A    between atoms: _492  and  _493
REMARK  204  A    between atoms: _497  and  _498
REMARK  205  A    between atoms: _503  and  _505
REMARK  206  A    between atoms: _505  and  _506
REMARK  207  A    between atoms: _505  and  _508
REMARK  208  A    between atoms: _511  and  _513
REMARK  209  A    between atoms: _513  and  _514
REMARK  210  A    between atoms: _513  and  _516
REMARK  211  A    between atoms: _516  and  _517
REMARK  212  A    between atoms: _522  and  _524
REMARK  213  A    between atoms: _524  and  _525
REMARK  214  A    between atoms: _524  and  _527
REMARK  215  A    between atoms: _527  and  _528
REMARK  216  A    between atoms: _531  and  _533
REMARK  217  A    between atoms: _533  and  _534
REMARK  218  A    between atoms: _533  and  _536
REMARK  219  A    between atoms: _536  and  _537
REMARK  220  A    between atoms: _540  and  _542
REMARK  221  A    between atoms: _542  and  _543
REMARK  222  A    between atoms: _545  and  _547
REMARK  223  A    between atoms: _547  and  _548
REMARK  224  A    between atoms: _547  and  _550
REMARK  225  A    between atoms: _550  and  _551
REMARK  226  A    between atoms: _551  and  _552
REMARK  227  A    between atoms: _552  and  _553
REMARK                            x       y       z     vdW  Elec       q    Type
REMARK                         _______ _______ _______ _____ _____    ______ ____
ROOT
ATOM      1  CA  ILE A   6      21.901  -6.479   5.978  0.00  0.00    +0.149 C 
ENDROOT
BRANCH   1   3
ATOM      2  C   ASN A   5      21.241  -8.772   5.414  0.00  0.00    +0.241 C 
ATOM      3  N   ILE A   6      21.147  -7.714   6.206  0.00  0.00    -0.297 N 
ATOM      4  H   ILE A   6      20.509  -7.763   7.026  0.00  0.00    +0.150 HD
ATOM      5  O   ASN A   5      21.995  -8.828   4.467  0.00  0.00    -0.273 OA
BRANCH   2   6
ATOM      6  CA  ASN A   5      20.309  -9.963   5.760  0.00  0.00    +0.158 C 
BRANCH   6   8
ATOM      7  C   VAL A   4      18.673  -9.644   3.978  0.00  0.00    +0.241 C 
ATOM      8  N   ASN A   5      19.632 -10.366   4.540  0.00  0.00    -0.297 N 
ATOM      9  H   ASN A   5      19.912 -11.260   4.088  0.00  0.00    +0.150 HD
ATOM     10  O   VAL A   4      18.155  -8.677   4.522  0.00  0.00    -0.273 OA
BRANCH   7  11
ATOM     11  CA  VAL A   4      18.134 -10.172   2.658  0.00  0.00    +0.149 C 
BRANCH  11  13
ATOM     12  C   PRO A   3      15.842 -10.710   2.059  0.00  0.00    +0.241 C 
ATOM     13  N   VAL A   4      16.717  -9.922   2.683  0.00  0.00    -0.297 N 
ATOM     14  H   VAL A   4      16.363  -9.096   3.207  0.00  0.00    +0.150 HD
ATOM     15  O   PRO A   3      16.177 -11.745   1.470  0.00  0.00    -0.273 OA
BRANCH  12  22
ATOM     16  C   THR A   2      13.977  -9.295   4.261  0.00  0.00    +0.246 C 
ATOM     17  O   THR A   2      13.988 -10.400   4.736  0.00  0.00    -0.273 OA
ATOM     18  N   PRO A   3      14.080  -9.119   2.957  0.00  0.00    -0.272 N 
ATOM     19  CD  PRO A   3      13.851  -7.860   2.224  0.00  0.00    +0.094 C 
ATOM     20  CG  PRO A   3      13.873  -8.272   0.766  0.00  0.00    +0.024 C 
ATOM     21  CB  PRO A   3      13.973  -9.745   0.673  0.00  0.00    +0.031 C 
ATOM     22  CA  PRO A   3      14.369 -10.265   2.070  0.00  0.00    +0.152 C 
BRANCH  16  23
ATOM     23  CA  THR A   2      13.699  -8.090   5.141  0.00  0.00    +0.176 C 
BRANCH  23  25
ATOM     24  C   PRO A   1      11.534  -8.284   6.232  0.00  0.00    +0.239 C 
ATOM     25  N   THR A   2      12.833  -8.590   6.213  0.00  0.00    -0.295 N 
ATOM     26  H   THR A   2      13.234  -9.187   6.964  0.00  0.00    +0.150 HD
ATOM     27  O   PRO A   1      11.006  -7.571   5.392  0.00  0.00    -0.274 OA
BRANCH  24  32
ATOM     28  N   PRO A   1      11.025  -8.263   8.647  0.00  0.00    -0.210 NA
ATOM     29  CD  PRO A   1      10.032  -7.249   9.048  0.00  0.00    +0.089 C 
ATOM     30  CG  PRO A   1       8.807  -7.710   8.366  0.00  0.00    +0.021 C 
ATOM     31  CB  PRO A   1       9.229  -8.547   7.165  0.00  0.00    +0.028 C 
ATOM     32  CA  PRO A   1      10.714  -8.862   7.360  0.00  0.00    +0.149 C 
ENDBRANCH  24  32
ENDBRANCH  23  25
BRANCH  23  33
ATOM     33  CB  THR A   2      14.974  -7.404   5.734  0.00  0.00    +0.137 C 
ATOM     34  CG2 THR A   2      15.755  -8.354   6.617  0.00  0.00    +0.034 C 
BRANCH  33  35
ATOM     35  OG1 THR A   2      15.891  -7.087   4.682  0.00  0.00    -0.382 OA
ATOM     36  HG1 THR A   2      16.155  -7.919   4.214  0.00  0.00    +0.210 HD
ENDBRANCH  33  35
ENDBRANCH  23  33
ENDBRANCH  16  23
ENDBRANCH  12  22
ENDBRANCH  11  13
BRANCH  11  37
ATOM     37  CB  VAL A   4      18.797  -9.540   1.379  0.00  0.00    +0.027 C 
ATOM     38  CG2 VAL A   4      18.715  -8.040   1.407  0.00  0.00    +0.002 C 
ATOM     39  CG1 VAL A   4      20.260 -10.022   1.162  0.00  0.00    +0.002 C 
ENDBRANCH  11  37
ENDBRANCH   7  11
ENDBRANCH   6   8
BRANCH   6  40
ATOM     40  CB  ASN A   5      21.100 -11.147   6.308  0.00  0.00    +0.114 C 
BRANCH  40  41
ATOM     41  CG  ASN A   5      20.204 -12.298   6.744  0.00  0.00    +0.222 C 
ATOM     42  OD1 ASN A   5      19.233 -12.083   7.455  0.00  0.00    -0.275 OA
ATOM     43  ND2 ASN A   5      20.536 -13.526   6.333  0.00  0.00    -0.329 N 
ATOM     44 HD21 ASN A   5      19.959 -14.343   6.618  0.00  0.00    +0.145 HD
ATOM     45 HD22 ASN A   5      21.371 -13.664   5.728  0.00  0.00    +0.145 HD
ENDBRANCH  40  41
ENDBRANCH   6  40
ENDBRANCH   2   6
ENDBRANCH   1   3
BRANCH   1  46
ATOM     46  C   ILE A   6      22.856  -6.221   7.130  0.00  0.00    +0.241 C 
ATOM     47  O   ILE A   6      22.437  -6.122   8.295  0.00  0.00    -0.273 OA
ATOM     48  N   ILE A   7      24.136  -6.103   6.812  0.00  0.00    -0.297 N 
ATOM     49  H   ILE A   7      24.472  -6.426   5.882  0.00  0.00    +0.150 HD
BRANCH  48  50
ATOM     50  CA  ILE A   7      25.094  -5.509   7.783  0.00  0.00    +0.149 C 
BRANCH  50  51
ATOM     51  C   ILE A   7      25.226  -4.011   7.481  0.00  0.00    +0.241 C 
ATOM     52  N   GLY A   8      24.807  -3.156   8.420  0.00  0.00    -0.295 N 
ATOM     53  H   GLY A   8      24.491  -3.527   9.339  0.00  0.00    +0.150 HD
ATOM     54  O   ILE A   7      25.724  -3.649   6.431  0.00  0.00    -0.273 OA
BRANCH  52  55
ATOM     55  CA  GLY A   8      24.782  -1.708   8.186  0.00  0.00    +0.176 C 
BRANCH  55  56
ATOM     56  C   GLY A   8      25.981  -1.061   8.855  0.00  0.00    +0.243 C 
ATOM     57  O   GLY A   8      26.853  -1.730   9.436  0.00  0.00    -0.273 OA
ATOM     58  N   ARG A   9      26.029   0.257   8.788  0.00  0.00    -0.297 N 
ATOM     59  H   ARG A   9      25.198   0.768   8.426  0.00  0.00    +0.150 HD
BRANCH  58  60
ATOM     60  CA  ARG A   9      27.198   1.027   9.200  0.00  0.00    +0.149 C 
BRANCH  60  61
ATOM     61  C   ARG A   9      27.505   0.920  10.690  0.00  0.00    +0.241 C 
ATOM     62  N   ASN A  10      26.507   0.686  11.540  0.00  0.00    -0.298 N 
ATOM     63  H   ASN A  10      25.534   0.591  11.186  0.00  0.00    +0.150 HD
ATOM     64  O   ARG A   9      28.653   1.028  11.057  0.00  0.00    -0.273 OA
BRANCH  62  65
ATOM     65  CA  ASN A  10      26.781   0.562  12.975  0.00  0.00    +0.146 C 
BRANCH  65  66
ATOM     66  C   ASN A  10      27.806  -0.554  13.294  0.00  0.00    +0.227 C 
ATOM     67  O   ASN A  10      28.575  -0.447  14.249  0.00  0.00    -0.286 OA
ENDBRANCH  65  66
BRANCH  65  68
ATOM     68  CB  ASN A  10      25.500   0.329  13.788  0.00  0.00    +0.112 C 
BRANCH  68  69
ATOM     69  CG  ASN A  10      24.857  -1.016  13.514  0.00  0.00    +0.222 C 
ATOM     70  ND2 ASN A  10      24.602  -1.788  14.577  0.00  0.00    -0.329 N 
ATOM     71 HD21 ASN A  10      24.887  -1.476  15.527  0.00  0.00    +0.145 HD
ATOM     72 HD22 ASN A  10      24.118  -2.700  14.453  0.00  0.00    +0.145 HD
ATOM     73  OD1 ASN A  10      24.543  -1.338  12.384  0.00  0.00    -0.275 OA
ENDBRANCH  68  69
ENDBRANCH  65  68
ENDBRANCH  62  65
ENDBRANCH  60  61
BRANCH  60  74
ATOM     74  CB  ARG A   9      27.001   2.495   8.796  0.00  0.00    +0.033 C 
BRANCH  74  75
ATOM     75  CG  ARG A   9      27.130   2.744   7.286  0.00  0.00    +0.045 C 
BRANCH  75  76
ATOM     76  CD  ARG A   9      27.158   4.252   6.920  0.00  0.00    +0.174 C 
BRANCH  76  77
ATOM     77  NE  ARG A   9      25.954   4.953   7.387  0.00  0.00    -0.265 N 
ATOM     78  CZ  ARG A   9      25.900   5.697   8.514  0.00  0.00    +0.342 C 
ATOM     79  NH2 ARG A   9      26.972   5.861   9.319  0.00  0.00    -0.292 N 
ATOM     80 HH21 ARG A   9      26.893   6.441  10.179  0.00  0.00    +0.255 HD
ATOM     81 HH22 ARG A   9      27.877   5.407   9.079  0.00  0.00    +0.255 HD
ATOM     82  NH1 ARG A   9      24.769   6.276   8.848  0.00  0.00    -0.292 N 
ATOM     83 HH11 ARG A   9      24.715   6.851   9.713  0.00  0.00    +0.255 HD
ATOM     84 HH12 ARG A   9      23.928   6.159   8.248  0.00  0.00    +0.255 HD
ATOM     85  HE  ARG A   9      25.090   4.872   6.815  0.00  0.00    +0.259 HD
ENDBRANCH  76  77
ENDBRANCH  75  76
ENDBRANCH  74  75
ENDBRANCH  60  74
ENDBRANCH  58  60
ENDBRANCH  55  56
ENDBRANCH  52  55
ENDBRANCH  50  51
BRANCH  50  86
ATOM     86  CB  ILE A   7      26.469  -6.179   7.744  0.00  0.00    +0.027 C 
ATOM     87  CG2 ILE A   7      27.361  -5.652   8.922  0.00  0.00    +0.002 C 
BRANCH  86  88
ATOM     88  CG1 ILE A   7      26.333  -7.727   7.760  0.00  0.00    +0.002 C 
ATOM     89  CD1 ILE A   7      25.552  -8.251   9.004  0.00  0.00    +0.000 C 
ENDBRANCH  86  88
ENDBRANCH  50  86
ENDBRANCH  48  50
ENDBRANCH   1  46
BRANCH   1  90
ATOM     90  CB  ILE A   6      20.925  -5.250   5.840  0.00  0.00    +0.027 C 
ATOM     91  CG2 ILE A   6      21.713  -3.933   5.731  0.00  0.00    +0.002 C 
BRANCH  90  92
ATOM     92  CG1 ILE A   6      19.981  -5.408   4.648  0.00  0.00    +0.002 C 
ATOM     93  CD1 ILE A   6      20.693  -5.555   3.337  0.00  0.00    +0.000 C 
ENDBRANCH  90  92
ENDBRANCH   1  90
TORSDOF 33
REMARK  Name = ../refined-set-2016/2p3b/2p3b_pocket.pdb
REMARK  227 active torsions:
REMARK  status: ('A' for Active; 'I' for Inactive)
REMARK    1  A    between atoms: _1  and  _3
REMARK    2  A    between atoms: _3  and  _4
REMARK    3  A    between atoms: _3  and  _6
REMARK    4  A    between atoms: _6  and  _7
REMARK    5  A    between atoms: _7  and  _8
REMARK    6  A    between atoms: _8  and  _9
REMARK    7  A    between atoms: _18  and  _20
REMARK    8  A    between atoms: _20  and  _21
REMARK    9  A    between atoms: _20  and  _23
REMARK   10  A    between atoms: _23  and  _24
REMARK   11  A    between atoms: _27  and  _29
REMARK   12  A    between atoms: _29  and  _30
REMARK   13  A    between atoms: _29  and  _32
REMARK   14  A    between atoms: _32  and  _33
REMARK   15  A    between atoms: _36  and  _38
REMARK   16  A    between atoms: _38  and  _39
REMARK   17  A    between atoms: _38  and  _41
REMARK   18  A    between atoms: _41  and  _42
REMARK   19  A    between atoms: _45  and  _47
REMARK   20  A    between atoms: _47  and  _48
REMARK   21  A    between atoms: _47  and  _50
REMARK   22  A    between atoms: _50  and  _51
REMARK   23  A    between atoms: _54  and  _56
REMARK   24  A    between atoms: _56  and  _57
REMARK   25  A    between atoms: _59  and  _61
REMARK   26  A    between atoms: _61  and  _62
REMARK   27  A    between atoms: _65  and  _67
REMARK   28  A    between atoms: _67  and  _68
REMARK   29  A    between atoms: _67  and  _70
REMARK   30  A    between atoms: _70  and  _71
REMARK   31  A    between atoms: _74  and  _76
REMARK   32  A    between atoms: _76  and  _77
REMARK   33  A    between atoms: _76  and  _79
REMARK   34  A    between atoms: _79  and  _80
REMARK   35  A    between atoms: _83  and  _85
REMARK   36  A    between atoms: _85  and  _86
REMARK   37  A    between atoms: _85  and  _88
REMARK   38  A    between atoms: _88  and  _89
REMARK   39  A    between atoms: _92  and  _94
REMARK   40  A    between atoms: _94  and  _95
REMARK   41  A    between atoms: _94  and  _97
REMARK   42  A    between atoms: _100  and  _102
REMARK   43  A    between atoms: _102  and  _103
REMARK   44  A    between atoms: _102  and  _105
REMARK   45  A    between atoms: _105  and  _106
REMARK   46  A    between atoms: _106  and  _107
REMARK   47  A    between atoms: _107  and  _108
REMARK   48  A    between atoms: _108  and  _109
REMARK   49  A    between atoms: _113  and  _115
REMARK   50  A    between atoms: _115  and  _116
REMARK   51  A    between atoms: _115  and  _118
REMARK   52  A    between atoms: _118  and  _119
REMARK   53  A    between atoms: _119  and  _120
REMARK   54  A    between atoms: _122  and  _124
REMARK   55  A    between atoms: _124  and  _125
REMARK   56  A    between atoms: _124  and  _127
REMARK   57  A    between atoms: _127  and  _128
REMARK   58  A    between atoms: _131  and  _133
REMARK   59  A    between atoms: _133  and  _134
REMARK   60  A    between atoms: _136  and  _138
REMARK   61  A    between atoms: _138  and  _139
REMARK   62  A    between atoms: _141  and  _143
REMARK   63  A    between atoms: _143  and  _144
REMARK   64  A    between atoms: _143  and  _146
REMARK   65  A    between atoms: _146  and  _147
REMARK   66  A    between atoms: _150  and  _152
REMARK   67  A    between atoms: _152  and  _153
REMARK   68  A    between atoms: _155  and  _157
REMARK   69  A    between atoms: _157  and  _158
REMARK   70  A    between atoms: _160  and  _162
REMARK   71  A    between atoms: _162  and  _163
REMARK   72  A    between atoms: _162  and  _165
REMARK   73  A    between atoms: _165  and  _166
REMARK   74  A    between atoms: _172  and  _174
REMARK   75  A    between atoms: _174  and  _175
REMARK   76  A    between atoms: _174  and  _177
REMARK   77  A    between atoms: _177  and  _178
REMARK   78  A    between atoms: _181  and  _183
REMARK   79  A    between atoms: _183  and  _184
REMARK   80  A    between atoms: _183  and  _186
REMARK   81  A    between atoms: _186  and  _187
REMARK   82  A    between atoms: _191  and  _192
REMARK   83  A    between atoms: _197  and  _199
REMARK   84  A    between atoms: _199  and  _200
REMARK   85  A    between atoms: _199  and  _202
REMARK   86  A    between atoms: _202  and  _203
REMARK   87  A    between atoms: _207  and  _208
REMARK   88  A    between atoms: _213  and  _215
REMARK   89  A    between atoms: _215  and  _216
REMARK   90  A    between atoms: _215  and  _218
REMARK   91  A    between atoms: _221  and  _223
REMARK   92  A    between atoms: _223  and  _224
REMARK   93  A    between atoms: _223  and  _226
REMARK   94  A    between atoms: _226  and  _227
REMARK   95  A    between atoms: _232  and  _234
REMARK   96  A    between atoms: _234  and  _235
REMARK   97  A    between atoms: _234  and  _237
REMARK   98  A    between atoms: _237  and  _238
REMARK   99  A    between atoms: _241  and  _243
REMARK  100  A    between atoms: _243  and  _244
REMARK  101  A    between atoms: _243  and  _246
REMARK  102  A    between atoms: _246  and  _247
REMARK  103  A    between atoms: _250  and  _252
REMARK  104  A    between atoms: _252  and  _253
REMARK  105  A    between atoms: _255  and  _257
REMARK  106  A    between atoms: _257  and  _258
REMARK  107  A    between atoms: _257  and  _260
REMARK  108  A    between atoms: _260  and  _261
REMARK  109  A    between atoms: _261  and  _262
REMARK  110  A    between atoms: _262  and  _263
REMARK  111  A    between atoms: _272  and  _274
REMARK  112  A    between atoms: _274  and  _275
REMARK  113  A    between atoms: _274  and  _277
REMARK  114  A    between atoms: _277  and  _278
REMARK  115  A    between atoms: _283  and  _285
REMARK  116  A    between atoms: _285  and  _286
REMARK  117  A    between atoms: _285  and  _288
REMARK  118  A    between atoms: _288  and  _289
REMARK  119  A    between atoms: _289  and  _290
REMARK  120  A    between atoms: _290  and  _291
REMARK  121  A    between atoms: _300  and  _302
REMARK  122  A    between atoms: _302  and  _303
REMARK  123  A    between atoms: _302  and  _305
REMARK  124  A    between atoms: _305  and  _306
REMARK  125  A    between atoms: _309  and  _311
REMARK  126  A    between atoms: _311  and  _312
REMARK  127  A    between atoms: _311  and  _314
REMARK  128  A    between atoms: _314  and  _315
REMARK  129  A    between atoms: _318  and  _320
REMARK  130  A    between atoms: _320  and  _321
REMARK  131  A    between atoms: _320  and  _323
REMARK  132  A    between atoms: _323  and  _324
REMARK  133  A    between atoms: _327  and  _329
REMARK  134  A    between atoms: _329  and  _330
REMARK  135  A    between atoms: _329  and  _332
REMARK  136  A    between atoms: _332  and  _333
REMARK  137  A    between atoms: _336  and  _338
REMARK  138  A    between atoms: _338  and  _339
REMARK  139  A    between atoms: _341  and  _343
REMARK  140  A    between atoms: _343  and  _344
REMARK  141  A    between atoms: _347  and  _349
REMARK  142  A    between atoms: _349  and  _350
REMARK  143  A    between atoms: _349  and  _352
REMARK  144  A    between atoms: _352  and  _353
REMARK  145  A    between atoms: _356  and  _358
REMARK  146  A    between atoms: _358  and  _359
REMARK  147  A    between atoms: _358  and  _361
REMARK  148  A    between atoms: _361  and  _362
REMARK  149  A    between atoms: _365  and  _367
REMARK  150  A    between atoms: _367  and  _368
REMARK  151  A    between atoms: _367  and  _370
REMARK  152  A    between atoms: _370  and  _371
REMARK  153  A    between atoms: _374  and  _376
REMARK  154  A    between atoms: _376  and  _377
REMARK  155  A    between atoms: _376  and  _379
REMARK  156  A    between atoms: _382  and  _384
REMARK  157  A    between atoms: _384  and  _385
REMARK  158  A    between atoms: _384  and  _387
REMARK  159  A    between atoms: _387  and  _388
REMARK  160  A    between atoms: _388  and  _389
REMARK  161  A    between atoms: _389  and  _390
REMARK  162  A    between atoms: _390  and  _391
REMARK  163  A    between atoms: _395  and  _397
REMARK  164  A    between atoms: _397  and  _398
REMARK  165  A    between atoms: _397  and  _400
REMARK  166  A    between atoms: _400  and  _401
REMARK  167  A    between atoms: _401  and  _402
REMARK  168  A    between atoms: _404  and  _406
REMARK  169  A    between atoms: _406  and  _407
REMARK  170  A    between atoms: _406  and  _409
REMARK  171  A    between atoms: _409  and  _410
REMARK  172  A    between atoms: _413  and  _415
REMARK  173  A    between atoms: _415  and  _416
REMARK  174  A    between atoms: _418  and  _420
REMARK  175  A    between atoms: _420  and  _421
REMARK  176  A    between atoms: _423  and  _425
REMARK  177  A    between atoms: _425  and  _426
REMARK  178  A    between atoms: _425  and  _428
REMARK  179  A    between atoms: _428  and  _429
REMARK  180  A    between atoms: _432  and  _434
REMARK  181  A    between atoms: _434  and  _435
REMARK  182  A    between atoms: _437  and  _439
REMARK  183  A    between atoms: _439  and  _440
REMARK  184  A    between atoms: _442  and  _444
REMARK  185  A    between atoms: _444  and  _445
REMARK  186  A    between atoms: _444  and  _447
REMARK  187  A    between atoms: _447  and  _448
REMARK  188  A    between atoms: _454  and  _456
REMARK  189  A    between atoms: _456  and  _457
REMARK  190  A    between atoms: _456  and  _459
REMARK  191  A    between atoms: _459  and  _460
REMARK  192  A    between atoms: _463  and  _465
REMARK  193  A    between atoms: _465  and  _466
REMARK  194  A    between atoms: _465  and  _468
REMARK  195  A    between atoms: _471  and  _473
REMARK  196  A    between atoms: _473  and  _474
REMARK  197  A    between atoms: _473  and  _476
REMARK  198  A    between atoms: _476  and  _477
REMARK  199  A    between atoms: _481  and  _482
REMARK  200  A    between atoms: _487  and  _489
REMARK  201  A    between atoms: _489  and  _490
REMARK  202  A    between atoms: _489  and  _492
REMARK  203  A    between atoms: _492  and  _493
REMARK  204  A    between atoms: _497  and  _498
REMARK  205  A    between atoms: _503  and  _505
REMARK  206  A    between atoms: _505  and  _506
REMARK  207  A    between atoms: _505  and  _508
REMARK  208  A    between atoms: _511  and  _513
REMARK  209  A    between atoms: _513  and  _514
REMARK  210  A    between atoms: _513  and  _516
REMARK  211  A    between atoms: _516  and  _517
REMARK  212  A    between atoms: _522  and  _524
REMARK  213  A    between atoms: _524  and  _525
REMARK  214  A    between atoms: _524  and  _527
REMARK  215  A    between atoms: _527  and  _528
REMARK  216  A    between atoms: _531  and  _533
REMARK  217  A    between atoms: _533  and  _534
REMARK  218  A    between atoms: _533  and  _536
REMARK  219  A    between atoms: _536  and  _537
REMARK  220  A    between atoms: _540  and  _542
REMARK  221  A    between atoms: _542  and  _543
REMARK  222  A    between atoms: _545  and  _547
REMARK  223  A    between atoms: _547  and  _548
REMARK  224  A    between atoms: _547  and  _550
REMARK  225  A    between atoms: _550  and  _551
REMARK  226  A    between atoms: _551  and  _552
REMARK  227  A    between atoms: _552  and  _553
REMARK                            x       y       z     vdW  Elec       q    Type
REMARK                         _______ _______ _______ _____ _____    ______ ____
ROOT
ATOM      1  NE  ARG A   1      21.864   8.349   6.579  0.00  0.00    -0.265 N 
ATOM      2  HE  ARG A   1      22.158   7.543   7.166  0.00  0.00    +0.259 HD
ATOM      3  CZ  ARG A   1      20.613   8.811   6.749  0.00  0.00    +0.342 C 
ATOM      4  NH2 ARG A   1      19.803   8.259   7.646  0.00  0.00    -0.292 N 
ATOM      5 HH21 ARG A   1      20.135   7.461   8.225  0.00  0.00    +0.255 HD
ATOM      6 HH22 ARG A   1      18.837   8.625   7.769  0.00  0.00    +0.255 HD
ATOM      7  NH1 ARG A   1      20.164   9.845   6.021  0.00  0.00    -0.292 N 
ATOM      8 HH11 ARG A   1      19.195  10.196   6.159  0.00  0.00    +0.255 HD
ATOM      9 HH12 ARG A   1      20.785  10.295   5.319  0.00  0.00    +0.255 HD
ENDROOT
BRANCH   1  10
ATOM     10  CD  ARG A   1      22.860   8.892   5.625  0.00  0.00    +0.174 C 
BRANCH  10  11
ATOM     11  CG  ARG A   1      24.247   8.334   5.964  0.00  0.00    +0.045 C 
BRANCH  11  12
ATOM     12  CB  ARG A   1      25.399   9.023   5.279  0.00  0.00    +0.029 C 
BRANCH  12  13
ATOM     13  CA  ARG A   1      26.744   8.401   5.621  0.00  0.00    +0.133 C 
BRANCH  13  14
ATOM     14  N   ARG A   1      27.207   8.824   6.948  0.00  0.00    -0.239 NA
ATOM     15  H   ARG A   1      26.614   9.469   7.509  0.00  0.00    +0.142 HD
ENDBRANCH  13  14
BRANCH  13  16
ATOM     16  C   ARG A   1      27.806   8.805   4.607  0.00  0.00    +0.224 C 
ATOM     17  O   ARG A   1      28.312   9.930   4.668  0.00  0.00    -0.287 OA
ENDBRANCH  13  16
ENDBRANCH  12  13
ENDBRANCH  11  12
ENDBRANCH  10  11
ENDBRANCH   1  10
TORSDOF 6
REMARK  Name = ../refined-set-2016/2p3b/2p3b_pocket.pdb
REMARK  227 active torsions:
REMARK  status: ('A' for Active; 'I' for Inactive)
REMARK    1  A    between atoms: _1  and  _3
REMARK    2  A    between atoms: _3  and  _4
REMARK    3  A    between atoms: _3  and  _6
REMARK    4  A    between atoms: _6  and  _7
REMARK    5  A    between atoms: _7  and  _8
REMARK    6  A    between atoms: _8  and  _9
REMARK    7  A    between atoms: _18  and  _20
REMARK    8  A    between atoms: _20  and  _21
REMARK    9  A    between atoms: _20  and  _23
REMARK   10  A    between atoms: _23  and  _24
REMARK   11  A    between atoms: _27  and  _29
REMARK   12  A    between atoms: _29  and  _30
REMARK   13  A    between atoms: _29  and  _32
REMARK   14  A    between atoms: _32  and  _33
REMARK   15  A    between atoms: _36  and  _38
REMARK   16  A    between atoms: _38  and  _39
REMARK   17  A    between atoms: _38  and  _41
REMARK   18  A    between atoms: _41  and  _42
REMARK   19  A    between atoms: _45  and  _47
REMARK   20  A    between atoms: _47  and  _48
REMARK   21  A    between atoms: _47  and  _50
REMARK   22  A    between atoms: _50  and  _51
REMARK   23  A    between atoms: _54  and  _56
REMARK   24  A    between atoms: _56  and  _57
REMARK   25  A    between atoms: _59  and  _61
REMARK   26  A    between atoms: _61  and  _62
REMARK   27  A    between atoms: _65  and  _67
REMARK   28  A    between atoms: _67  and  _68
REMARK   29  A    between atoms: _67  and  _70
REMARK   30  A    between atoms: _70  and  _71
REMARK   31  A    between atoms: _74  and  _76
REMARK   32  A    between atoms: _76  and  _77
REMARK   33  A    between atoms: _76  and  _79
REMARK   34  A    between atoms: _79  and  _80
REMARK   35  A    between atoms: _83  and  _85
REMARK   36  A    between atoms: _85  and  _86
REMARK   37  A    between atoms: _85  and  _88
REMARK   38  A    between atoms: _88  and  _89
REMARK   39  A    between atoms: _92  and  _94
REMARK   40  A    between atoms: _94  and  _95
REMARK   41  A    between atoms: _94  and  _97
REMARK   42  A    between atoms: _100  and  _102
REMARK   43  A    between atoms: _102  and  _103
REMARK   44  A    between atoms: _102  and  _105
REMARK   45  A    between atoms: _105  and  _106
REMARK   46  A    between atoms: _106  and  _107
REMARK   47  A    between atoms: _107  and  _108
REMARK   48  A    between atoms: _108  and  _109
REMARK   49  A    between atoms: _113  and  _115
REMARK   50  A    between atoms: _115  and  _116
REMARK   51  A    between atoms: _115  and  _118
REMARK   52  A    between atoms: _118  and  _119
REMARK   53  A    between atoms: _119  and  _120
REMARK   54  A    between atoms: _122  and  _124
REMARK   55  A    between atoms: _124  and  _125
REMARK   56  A    between atoms: _124  and  _127
REMARK   57  A    between atoms: _127  and  _128
REMARK   58  A    between atoms: _131  and  _133
REMARK   59  A    between atoms: _133  and  _134
REMARK   60  A    between atoms: _136  and  _138
REMARK   61  A    between atoms: _138  and  _139
REMARK   62  A    between atoms: _141  and  _143
REMARK   63  A    between atoms: _143  and  _144
REMARK   64  A    between atoms: _143  and  _146
REMARK   65  A    between atoms: _146  and  _147
REMARK   66  A    between atoms: _150  and  _152
REMARK   67  A    between atoms: _152  and  _153
REMARK   68  A    between atoms: _155  and  _157
REMARK   69  A    between atoms: _157  and  _158
REMARK   70  A    between atoms: _160  and  _162
REMARK   71  A    between atoms: _162  and  _163
REMARK   72  A    between atoms: _162  and  _165
REMARK   73  A    between atoms: _165  and  _166
REMARK   74  A    between atoms: _172  and  _174
REMARK   75  A    between atoms: _174  and  _175
REMARK   76  A    between atoms: _174  and  _177
REMARK   77  A    between atoms: _177  and  _178
REMARK   78  A    between atoms: _181  and  _183
REMARK   79  A    between atoms: _183  and  _184
REMARK   80  A    between atoms: _183  and  _186
REMARK   81  A    between atoms: _186  and  _187
REMARK   82  A    between atoms: _191  and  _192
REMARK   83  A    between atoms: _197  and  _199
REMARK   84  A    between atoms: _199  and  _200
REMARK   85  A    between atoms: _199  and  _202
REMARK   86  A    between atoms: _202  and  _203
REMARK   87  A    between atoms: _207  and  _208
REMARK   88  A    between atoms: _213  and  _215
REMARK   89  A    between atoms: _215  and  _216
REMARK   90  A    between atoms: _215  and  _218
REMARK   91  A    between atoms: _221  and  _223
REMARK   92  A    between atoms: _223  and  _224
REMARK   93  A    between atoms: _223  and  _226
REMARK   94  A    between atoms: _226  and  _227
REMARK   95  A    between atoms: _232  and  _234
REMARK   96  A    between atoms: _234  and  _235
REMARK   97  A    between atoms: _234  and  _237
REMARK   98  A    between atoms: _237  and  _238
REMARK   99  A    between atoms: _241  and  _243
REMARK  100  A    between atoms: _243  and  _244
REMARK  101  A    between atoms: _243  and  _246
REMARK  102  A    between atoms: _246  and  _247
REMARK  103  A    between atoms: _250  and  _252
REMARK  104  A    between atoms: _252  and  _253
REMARK  105  A    between atoms: _255  and  _257
REMARK  106  A    between atoms: _257  and  _258
REMARK  107  A    between atoms: _257  and  _260
REMARK  108  A    between atoms: _260  and  _261
REMARK  109  A    between atoms: _261  and  _262
REMARK  110  A    between atoms: _262  and  _263
REMARK  111  A    between atoms: _272  and  _274
REMARK  112  A    between atoms: _274  and  _275
REMARK  113  A    between atoms: _274  and  _277
REMARK  114  A    between atoms: _277  and  _278
REMARK  115  A    between atoms: _283  and  _285
REMARK  116  A    between atoms: _285  and  _286
REMARK  117  A    between atoms: _285  and  _288
REMARK  118  A    between atoms: _288  and  _289
REMARK  119  A    between atoms: _289  and  _290
REMARK  120  A    between atoms: _290  and  _291
REMARK  121  A    between atoms: _300  and  _302
REMARK  122  A    between atoms: _302  and  _303
REMARK  123  A    between atoms: _302  and  _305
REMARK  124  A    between atoms: _305  and  _306
REMARK  125  A    between atoms: _309  and  _311
REMARK  126  A    between atoms: _311  and  _312
REMARK  127  A    between atoms: _311  and  _314
REMARK  128  A    between atoms: _314  and  _315
REMARK  129  A    between atoms: _318  and  _320
REMARK  130  A    between atoms: _320  and  _321
REMARK  131  A    between atoms: _320  and  _323
REMARK  132  A    between atoms: _323  and  _324
REMARK  133  A    between atoms: _327  and  _329
REMARK  134  A    between atoms: _329  and  _330
REMARK  135  A    between atoms: _329  and  _332
REMARK  136  A    between atoms: _332  and  _333
REMARK  137  A    between atoms: _336  and  _338
REMARK  138  A    between atoms: _338  and  _339
REMARK  139  A    between atoms: _341  and  _343
REMARK  140  A    between atoms: _343  and  _344
REMARK  141  A    between atoms: _347  and  _349
REMARK  142  A    between atoms: _349  and  _350
REMARK  143  A    between atoms: _349  and  _352
REMARK  144  A    between atoms: _352  and  _353
REMARK  145  A    between atoms: _356  and  _358
REMARK  146  A    between atoms: _358  and  _359
REMARK  147  A    between atoms: _358  and  _361
REMARK  148  A    between atoms: _361  and  _362
REMARK  149  A    between atoms: _365  and  _367
REMARK  150  A    between atoms: _367  and  _368
REMARK  151  A    between atoms: _367  and  _370
REMARK  152  A    between atoms: _370  and  _371
REMARK  153  A    between atoms: _374  and  _376
REMARK  154  A    between atoms: _376  and  _377
REMARK  155  A    between atoms: _376  and  _379
REMARK  156  A    between atoms: _382  and  _384
REMARK  157  A    between atoms: _384  and  _385
REMARK  158  A    between atoms: _384  and  _387
REMARK  159  A    between atoms: _387  and  _388
REMARK  160  A    between atoms: _388  and  _389
REMARK  161  A    between atoms: _389  and  _390
REMARK  162  A    between atoms: _390  and  _391
REMARK  163  A    between atoms: _395  and  _397
REMARK  164  A    between atoms: _397  and  _398
REMARK  165  A    between atoms: _397  and  _400
REMARK  166  A    between atoms: _400  and  _401
REMARK  167  A    between atoms: _401  and  _402
REMARK  168  A    between atoms: _404  and  _406
REMARK  169  A    between atoms: _406  and  _407
REMARK  170  A    between atoms: _406  and  _409
REMARK  171  A    between atoms: _409  and  _410
REMARK  172  A    between atoms: _413  and  _415
REMARK  173  A    between atoms: _415  and  _416
REMARK  174  A    between atoms: _418  and  _420
REMARK  175  A    between atoms: _420  and  _421
REMARK  176  A    between atoms: _423  and  _425
REMARK  177  A    between atoms: _425  and  _426
REMARK  178  A    between atoms: _425  and  _428
REMARK  179  A    between atoms: _428  and  _429
REMARK  180  A    between atoms: _432  and  _434
REMARK  181  A    between atoms: _434  and  _435
REMARK  182  A    between atoms: _437  and  _439
REMARK  183  A    between atoms: _439  and  _440
REMARK  184  A    between atoms: _442  and  _444
REMARK  185  A    between atoms: _444  and  _445
REMARK  186  A    between atoms: _444  and  _447
REMARK  187  A    between atoms: _447  and  _448
REMARK  188  A    between atoms: _454  and  _456
REMARK  189  A    between atoms: _456  and  _457
REMARK  190  A    between atoms: _456  and  _459
REMARK  191  A    between atoms: _459  and  _460
REMARK  192  A    between atoms: _463  and  _465
REMARK  193  A    between atoms: _465  and  _466
REMARK  194  A    between atoms: _465  and  _468
REMARK  195  A    between atoms: _471  and  _473
REMARK  196  A    between atoms: _473  and  _474
REMARK  197  A    between atoms: _473  and  _476
REMARK  198  A    between atoms: _476  and  _477
REMARK  199  A    between atoms: _481  and  _482
REMARK  200  A    between atoms: _487  and  _489
REMARK  201  A    between atoms: _489  and  _490
REMARK  202  A    between atoms: _489  and  _492
REMARK  203  A    between atoms: _492  and  _493
REMARK  204  A    between atoms: _497  and  _498
REMARK  205  A    between atoms: _503  and  _505
REMARK  206  A    between atoms: _505  and  _506
REMARK  207  A    between atoms: _505  and  _508
REMARK  208  A    between atoms: _511  and  _513
REMARK  209  A    between atoms: _513  and  _514
REMARK  210  A    between atoms: _513  and  _516
REMARK  211  A    between atoms: _516  and  _517
REMARK  212  A    between atoms: _522  and  _524
REMARK  213  A    between atoms: _524  and  _525
REMARK  214  A    between atoms: _524  and  _527
REMARK  215  A    between atoms: _527  and  _528
REMARK  216  A    between atoms: _531  and  _533
REMARK  217  A    between atoms: _533  and  _534
REMARK  218  A    between atoms: _533  and  _536
REMARK  219  A    between atoms: _536  and  _537
REMARK  220  A    between atoms: _540  and  _542
REMARK  221  A    between atoms: _542  and  _543
REMARK  222  A    between atoms: _545  and  _547
REMARK  223  A    between atoms: _547  and  _548
REMARK  224  A    between atoms: _547  and  _550
REMARK  225  A    between atoms: _550  and  _551
REMARK  226  A    between atoms: _551  and  _552
REMARK  227  A    between atoms: _552  and  _553
REMARK                            x       y       z     vdW  Elec       q    Type
REMARK                         _______ _______ _______ _____ _____    ______ ____
ROOT
ATOM      1  C   GLY A   5      22.724  -2.299  -2.242  0.00  0.00    +0.243 C 
ATOM      2  O   GLY A   5      21.643  -2.882  -2.295  0.00  0.00    -0.273 OA
ATOM      3  N   ALA A   6      23.077  -1.381  -3.147  0.00  0.00    -0.297 N 
ATOM      4  H   ALA A   6      23.973  -0.865  -3.037  0.00  0.00    +0.150 HD
ENDROOT
BRANCH   3   5
ATOM      5  CA  ALA A   6      22.212  -1.098  -4.290  0.00  0.00    +0.149 C 
ATOM      6  CB  ALA A   6      22.033   0.417  -4.454  0.00  0.00    +0.031 C 
BRANCH   5   7
ATOM      7  C   ALA A   6      22.783  -1.726  -5.584  0.00  0.00    +0.241 C 
ATOM      8  O   ALA A   6      23.940  -1.449  -5.967  0.00  0.00    -0.273 OA
ATOM      9  N   ASP A   7      21.982  -2.568  -6.253  0.00  0.00    -0.297 N 
ATOM     10  H   ASP A   7      21.076  -2.854  -5.831  0.00  0.00    +0.150 HD
BRANCH   9  11
ATOM     11  CA  ASP A   7      22.364  -3.098  -7.582  0.00  0.00    +0.160 C 
BRANCH  11  12
ATOM     12  C   ASP A   7      22.508  -1.940  -8.558  0.00  0.00    +0.241 C 
ATOM     13  N   ASP A   8      21.565  -0.997  -8.516  0.00  0.00    -0.297 N 
ATOM     14  H   ASP A   8      20.878  -1.031  -7.736  0.00  0.00    +0.150 HD
ATOM     15  O   ASP A   7      23.443  -1.927  -9.327  0.00  0.00    -0.273 OA
BRANCH  13  16
ATOM     16  CA  ASP A   8      21.434   0.079  -9.492  0.00  0.00    +0.160 C 
BRANCH  16  17
ATOM     17  C   ASP A   8      21.613   1.464  -8.862  0.00  0.00    +0.241 C 
ATOM     18  O   ASP A   8      21.640   1.613  -7.655  0.00  0.00    -0.273 OA
ATOM     19  N   THR A   9      21.706   2.468  -9.729  0.00  0.00    -0.295 N 
ATOM     20  H   THR A   9      21.686   2.235 -10.742  0.00  0.00    +0.150 HD
BRANCH  19  21
ATOM     21  CA  THR A   9      21.832   3.851  -9.365  0.00  0.00    +0.176 C 
BRANCH  21  22
ATOM     22  C   THR A   9      20.495   4.556  -9.512  0.00  0.00    +0.243 C 
ATOM     23  N   VAL A  10      20.025   5.155  -8.433  0.00  0.00    -0.298 N 
ATOM     24  H   VAL A  10      20.634   5.243  -7.595  0.00  0.00    +0.150 HD
ATOM     25  O   THR A   9      19.874   4.520 -10.569  0.00  0.00    -0.273 OA
BRANCH  23  26
ATOM     26  CA  VAL A  10      18.678   5.693  -8.391  0.00  0.00    +0.137 C 
BRANCH  26  27
ATOM     27  CB  VAL A  10      17.702   4.929  -7.440  0.00  0.00    +0.026 C 
ATOM     28  CG2 VAL A  10      17.881   3.403  -7.503  0.00  0.00    +0.002 C 
ATOM     29  CG1 VAL A  10      16.269   5.328  -7.796  0.00  0.00    +0.002 C 
ENDBRANCH  26  27
BRANCH  26  30
ATOM     30  C   VAL A  10      18.747   7.114  -7.852  0.00  0.00    +0.227 C 
ATOM     31  O   VAL A  10      19.200   7.333  -6.712  0.00  0.00    -0.286 OA
ENDBRANCH  26  30
ENDBRANCH  23  26
ENDBRANCH  21  22
BRANCH  21  32
ATOM     32  CB  THR A   9      22.885   4.448 -10.263  0.00  0.00    +0.137 C 
ATOM     33  CG2 THR A   9      22.970   6.026 -10.142  0.00  0.00    +0.034 C 
BRANCH  32  34
ATOM     34  OG1 THR A   9      24.156   3.946  -9.833  0.00  0.00    -0.382 OA
ATOM     35  HG1 THR A   9      24.161   2.959  -9.904  0.00  0.00    +0.210 HD
ENDBRANCH  32  34
ENDBRANCH  21  32
ENDBRANCH  19  21
ENDBRANCH  16  17
BRANCH  16  36
ATOM     36  CB  ASP A   8      20.058   0.037 -10.161  0.00  0.00    +0.143 C 
BRANCH  36  37
ATOM     37  CG  ASP A   8      19.731  -1.325 -10.761  0.00  0.00    +0.367 C 
ATOM     38  OD2 ASP A   8      18.730  -1.970 -10.436  0.00  0.00    -0.246 OA
ATOM     39  OD1 ASP A   8      20.498  -1.830 -11.601  0.00  0.00    -0.246 OA
ENDBRANCH  36  37
ENDBRANCH  16  36
ENDBRANCH  13  16
ENDBRANCH  11  12
BRANCH  11  40
ATOM     40  CB  ASP A   7      21.327  -4.061  -8.164  0.00  0.00    +0.143 C 
BRANCH  40  41
ATOM     41  CG  ASP A   7      21.055  -5.275  -7.265  0.00  0.00    +0.367 C 
ATOM     42  OD2 ASP A   7      21.892  -5.646  -6.409  0.00  0.00    -0.246 OA
ATOM     43  OD1 ASP A   7      19.991  -5.896  -7.357  0.00  0.00    -0.246 OA
ENDBRANCH  40  41
ENDBRANCH  11  40
ENDBRANCH   9  11
ENDBRANCH   5   7
ENDBRANCH   3   5
BRANCH   1  44
ATOM     44  CA  GLY A   5      23.701  -2.598  -1.108  0.00  0.00    +0.176 C 
BRANCH  44  46
ATOM     45  C   THR A   4      26.006  -2.137  -1.782  0.00  0.00    +0.243 C 
ATOM     46  N   GLY A   5      24.919  -1.783  -1.097  0.00  0.00    -0.295 N 
ATOM     47  H   GLY A   5      24.936  -0.905  -0.540  0.00  0.00    +0.150 HD
ATOM     48  O   THR A   4      26.112  -3.238  -2.350  0.00  0.00    -0.273 OA
BRANCH  45  49
ATOM     49  CA  THR A   4      27.188  -1.162  -1.794  0.00  0.00    +0.176 C 
BRANCH  49  51
ATOM     50  C   ASP A   3      26.077   0.983  -2.197  0.00  0.00    +0.241 C 
ATOM     51  N   THR A   4      26.847   0.200  -1.412  0.00  0.00    -0.295 N 
ATOM     52  H   THR A   4      27.205   0.579  -0.512  0.00  0.00    +0.150 HD
ATOM     53  O   ASP A   3      25.651   0.623  -3.298  0.00  0.00    -0.273 OA
BRANCH  50  54
ATOM     54  CA  ASP A   3      25.768   2.385  -1.678  0.00  0.00    +0.160 C 
BRANCH  54  57
ATOM     55  C   LEU A   2      27.295   4.202  -1.532  0.00  0.00    +0.241 C 
ATOM     56  O   LEU A   2      27.480   3.978  -0.329  0.00  0.00    -0.273 OA
ATOM     57  N   ASP A   3      26.633   3.359  -2.302  0.00  0.00    -0.297 N 
ATOM     58  H   ASP A   3      26.732   3.395  -3.337  0.00  0.00    +0.150 HD
BRANCH  55  59
ATOM     59  CA  LEU A   2      27.806   5.480  -2.203  0.00  0.00    +0.149 C 
BRANCH  59  61
ATOM     60  C   LEU A   1      25.885   6.982  -2.015  0.00  0.00    +0.238 C 
ATOM     61  N   LEU A   2      27.117   6.623  -1.615  0.00  0.00    -0.297 N 
ATOM     62  H   LEU A   2      27.590   7.173  -0.869  0.00  0.00    +0.150 HD
ATOM     63  O   LEU A   1      25.302   6.448  -2.993  0.00  0.00    -0.274 OA
BRANCH  60  64
ATOM     64  CA  LEU A   1      25.189   8.096  -1.231  0.00  0.00    +0.145 C 
BRANCH  64  65
ATOM     65  N   LEU A   1      24.649   9.110  -2.103  0.00  0.00    -0.238 NA
ATOM     66  H   LEU A   1      23.670   9.009  -2.440  0.00  0.00    +0.142 HD
ENDBRANCH  64  65
BRANCH  64  67
ATOM     67  CB  LEU A   1      24.014   7.547  -0.420  0.00  0.00    +0.026 C 
BRANCH  67  68
ATOM     68  CG  LEU A   1      24.115   6.516   0.698  0.00  0.00    +0.002 C 
ATOM     69  CD2 LEU A   1      24.648   7.212   1.905  0.00  0.00    +0.000 C 
ATOM     70  CD1 LEU A   1      22.687   5.994   0.957  0.00  0.00    +0.000 C 
ENDBRANCH  67  68
ENDBRANCH  64  67
ENDBRANCH  60  64
ENDBRANCH  59  61
BRANCH  59  71
ATOM     71  CB  LEU A   2      29.318   5.608  -2.032  0.00  0.00    +0.029 C 
BRANCH  71  72
ATOM     72  CG  LEU A   2      29.974   6.865  -2.662  0.00  0.00    +0.002 C 
ATOM     73  CD2 LEU A   2      31.406   6.836  -2.387  0.00  0.00    +0.000 C 
ATOM     74  CD1 LEU A   2      29.770   6.951  -4.175  0.00  0.00    +0.000 C 
ENDBRANCH  71  72
ENDBRANCH  59  71
ENDBRANCH  55  59
ENDBRANCH  54  57
BRANCH  54  75
ATOM     75  CB  ASP A   3      24.314   2.799  -1.926  0.00  0.00    +0.143 C 
BRANCH  75  76
ATOM     76  CG  ASP A   3      23.330   1.901  -1.244  0.00  0.00    +0.367 C 
ATOM     77  OD2 ASP A   3      23.720   0.874  -0.632  0.00  0.00    -0.246 OA
ATOM     78  OD1 ASP A   3      22.114   2.152  -1.270  0.00  0.00    -0.246 OA
ENDBRANCH  75  76
ENDBRANCH  54  75
ENDBRANCH  50  54
ENDBRANCH  49  51
BRANCH  49  79
ATOM     79  CB  THR A   4      28.343  -1.773  -0.896  0.00  0.00    +0.137 C 
ATOM     80  CG2 THR A   4      29.635  -1.026  -0.985  0.00  0.00    +0.034 C 
BRANCH  79  81
ATOM     81  OG1 THR A   4      27.965  -1.689   0.477  0.00  0.00    -0.382 OA
ATOM     82  HG1 THR A   4      27.128  -2.199   0.619  0.00  0.00    +0.210 HD
ENDBRANCH  79  81
ENDBRANCH  49  79
ENDBRANCH  45  49
ENDBRANCH  44  46
ENDBRANCH   1  44
TORSDOF 35
REMARK  Name = ../refined-set-2016/2p3b/2p3b_pocket.pdb
REMARK  227 active torsions:
REMARK  status: ('A' for Active; 'I' for Inactive)
REMARK    1  A    between atoms: _1  and  _3
REMARK    2  A    between atoms: _3  and  _4
REMARK    3  A    between atoms: _3  and  _6
REMARK    4  A    between atoms: _6  and  _7
REMARK    5  A    between atoms: _7  and  _8
REMARK    6  A    between atoms: _8  and  _9
REMARK    7  A    between atoms: _18  and  _20
REMARK    8  A    between atoms: _20  and  _21
REMARK    9  A    between atoms: _20  and  _23
REMARK   10  A    between atoms: _23  and  _24
REMARK   11  A    between atoms: _27  and  _29
REMARK   12  A    between atoms: _29  and  _30
REMARK   13  A    between atoms: _29  and  _32
REMARK   14  A    between atoms: _32  and  _33
REMARK   15  A    between atoms: _36  and  _38
REMARK   16  A    between atoms: _38  and  _39
REMARK   17  A    between atoms: _38  and  _41
REMARK   18  A    between atoms: _41  and  _42
REMARK   19  A    between atoms: _45  and  _47
REMARK   20  A    between atoms: _47  and  _48
REMARK   21  A    between atoms: _47  and  _50
REMARK   22  A    between atoms: _50  and  _51
REMARK   23  A    between atoms: _54  and  _56
REMARK   24  A    between atoms: _56  and  _57
REMARK   25  A    between atoms: _59  and  _61
REMARK   26  A    between atoms: _61  and  _62
REMARK   27  A    between atoms: _65  and  _67
REMARK   28  A    between atoms: _67  and  _68
REMARK   29  A    between atoms: _67  and  _70
REMARK   30  A    between atoms: _70  and  _71
REMARK   31  A    between atoms: _74  and  _76
REMARK   32  A    between atoms: _76  and  _77
REMARK   33  A    between atoms: _76  and  _79
REMARK   34  A    between atoms: _79  and  _80
REMARK   35  A    between atoms: _83  and  _85
REMARK   36  A    between atoms: _85  and  _86
REMARK   37  A    between atoms: _85  and  _88
REMARK   38  A    between atoms: _88  and  _89
REMARK   39  A    between atoms: _92  and  _94
REMARK   40  A    between atoms: _94  and  _95
REMARK   41  A    between atoms: _94  and  _97
REMARK   42  A    between atoms: _100  and  _102
REMARK   43  A    between atoms: _102  and  _103
REMARK   44  A    between atoms: _102  and  _105
REMARK   45  A    between atoms: _105  and  _106
REMARK   46  A    between atoms: _106  and  _107
REMARK   47  A    between atoms: _107  and  _108
REMARK   48  A    between atoms: _108  and  _109
REMARK   49  A    between atoms: _113  and  _115
REMARK   50  A    between atoms: _115  and  _116
REMARK   51  A    between atoms: _115  and  _118
REMARK   52  A    between atoms: _118  and  _119
REMARK   53  A    between atoms: _119  and  _120
REMARK   54  A    between atoms: _122  and  _124
REMARK   55  A    between atoms: _124  and  _125
REMARK   56  A    between atoms: _124  and  _127
REMARK   57  A    between atoms: _127  and  _128
REMARK   58  A    between atoms: _131  and  _133
REMARK   59  A    between atoms: _133  and  _134
REMARK   60  A    between atoms: _136  and  _138
REMARK   61  A    between atoms: _138  and  _139
REMARK   62  A    between atoms: _141  and  _143
REMARK   63  A    between atoms: _143  and  _144
REMARK   64  A    between atoms: _143  and  _146
REMARK   65  A    between atoms: _146  and  _147
REMARK   66  A    between atoms: _150  and  _152
REMARK   67  A    between atoms: _152  and  _153
REMARK   68  A    between atoms: _155  and  _157
REMARK   69  A    between atoms: _157  and  _158
REMARK   70  A    between atoms: _160  and  _162
REMARK   71  A    between atoms: _162  and  _163
REMARK   72  A    between atoms: _162  and  _165
REMARK   73  A    between atoms: _165  and  _166
REMARK   74  A    between atoms: _172  and  _174
REMARK   75  A    between atoms: _174  and  _175
REMARK   76  A    between atoms: _174  and  _177
REMARK   77  A    between atoms: _177  and  _178
REMARK   78  A    between atoms: _181  and  _183
REMARK   79  A    between atoms: _183  and  _184
REMARK   80  A    between atoms: _183  and  _186
REMARK   81  A    between atoms: _186  and  _187
REMARK   82  A    between atoms: _191  and  _192
REMARK   83  A    between atoms: _197  and  _199
REMARK   84  A    between atoms: _199  and  _200
REMARK   85  A    between atoms: _199  and  _202
REMARK   86  A    between atoms: _202  and  _203
REMARK   87  A    between atoms: _207  and  _208
REMARK   88  A    between atoms: _213  and  _215
REMARK   89  A    between atoms: _215  and  _216
REMARK   90  A    between atoms: _215  and  _218
REMARK   91  A    between atoms: _221  and  _223
REMARK   92  A    between atoms: _223  and  _224
REMARK   93  A    between atoms: _223  and  _226
REMARK   94  A    between atoms: _226  and  _227
REMARK   95  A    between atoms: _232  and  _234
REMARK   96  A    between atoms: _234  and  _235
REMARK   97  A    between atoms: _234  and  _237
REMARK   98  A    between atoms: _237  and  _238
REMARK   99  A    between atoms: _241  and  _243
REMARK  100  A    between atoms: _243  and  _244
REMARK  101  A    between atoms: _243  and  _246
REMARK  102  A    between atoms: _246  and  _247
REMARK  103  A    between atoms: _250  and  _252
REMARK  104  A    between atoms: _252  and  _253
REMARK  105  A    between atoms: _255  and  _257
REMARK  106  A    between atoms: _257  and  _258
REMARK  107  A    between atoms: _257  and  _260
REMARK  108  A    between atoms: _260  and  _261
REMARK  109  A    between atoms: _261  and  _262
REMARK  110  A    between atoms: _262  and  _263
REMARK  111  A    between atoms: _272  and  _274
REMARK  112  A    between atoms: _274  and  _275
REMARK  113  A    between atoms: _274  and  _277
REMARK  114  A    between atoms: _277  and  _278
REMARK  115  A    between atoms: _283  and  _285
REMARK  116  A    between atoms: _285  and  _286
REMARK  117  A    between atoms: _285  and  _288
REMARK  118  A    between atoms: _288  and  _289
REMARK  119  A    between atoms: _289  and  _290
REMARK  120  A    between atoms: _290  and  _291
REMARK  121  A    between atoms: _300  and  _302
REMARK  122  A    between atoms: _302  and  _303
REMARK  123  A    between atoms: _302  and  _305
REMARK  124  A    between atoms: _305  and  _306
REMARK  125  A    between atoms: _309  and  _311
REMARK  126  A    between atoms: _311  and  _312
REMARK  127  A    between atoms: _311  and  _314
REMARK  128  A    between atoms: _314  and  _315
REMARK  129  A    between atoms: _318  and  _320
REMARK  130  A    between atoms: _320  and  _321
REMARK  131  A    between atoms: _320  and  _323
REMARK  132  A    between atoms: _323  and  _324
REMARK  133  A    between atoms: _327  and  _329
REMARK  134  A    between atoms: _329  and  _330
REMARK  135  A    between atoms: _329  and  _332
REMARK  136  A    between atoms: _332  and  _333
REMARK  137  A    between atoms: _336  and  _338
REMARK  138  A    between atoms: _338  and  _339
REMARK  139  A    between atoms: _341  and  _343
REMARK  140  A    between atoms: _343  and  _344
REMARK  141  A    between atoms: _347  and  _349
REMARK  142  A    between atoms: _349  and  _350
REMARK  143  A    between atoms: _349  and  _352
REMARK  144  A    between atoms: _352  and  _353
REMARK  145  A    between atoms: _356  and  _358
REMARK  146  A    between atoms: _358  and  _359
REMARK  147  A    between atoms: _358  and  _361
REMARK  148  A    between atoms: _361  and  _362
REMARK  149  A    between atoms: _365  and  _367
REMARK  150  A    between atoms: _367  and  _368
REMARK  151  A    between atoms: _367  and  _370
REMARK  152  A    between atoms: _370  and  _371
REMARK  153  A    between atoms: _374  and  _376
REMARK  154  A    between atoms: _376  and  _377
REMARK  155  A    between atoms: _376  and  _379
REMARK  156  A    between atoms: _382  and  _384
REMARK  157  A    between atoms: _384  and  _385
REMARK  158  A    between atoms: _384  and  _387
REMARK  159  A    between atoms: _387  and  _388
REMARK  160  A    between atoms: _388  and  _389
REMARK  161  A    between atoms: _389  and  _390
REMARK  162  A    between atoms: _390  and  _391
REMARK  163  A    between atoms: _395  and  _397
REMARK  164  A    between atoms: _397  and  _398
REMARK  165  A    between atoms: _397  and  _400
REMARK  166  A    between atoms: _400  and  _401
REMARK  167  A    between atoms: _401  and  _402
REMARK  168  A    between atoms: _404  and  _406
REMARK  169  A    between atoms: _406  and  _407
REMARK  170  A    between atoms: _406  and  _409
REMARK  171  A    between atoms: _409  and  _410
REMARK  172  A    between atoms: _413  and  _415
REMARK  173  A    between atoms: _415  and  _416
REMARK  174  A    between atoms: _418  and  _420
REMARK  175  A    between atoms: _420  and  _421
REMARK  176  A    between atoms: _423  and  _425
REMARK  177  A    between atoms: _425  and  _426
REMARK  178  A    between atoms: _425  and  _428
REMARK  179  A    between atoms: _428  and  _429
REMARK  180  A    between atoms: _432  and  _434
REMARK  181  A    between atoms: _434  and  _435
REMARK  182  A    between atoms: _437  and  _439
REMARK  183  A    between atoms: _439  and  _440
REMARK  184  A    between atoms: _442  and  _444
REMARK  185  A    between atoms: _444  and  _445
REMARK  186  A    between atoms: _444  and  _447
REMARK  187  A    between atoms: _447  and  _448
REMARK  188  A    between atoms: _454  and  _456
REMARK  189  A    between atoms: _456  and  _457
REMARK  190  A    between atoms: _456  and  _459
REMARK  191  A    between atoms: _459  and  _460
REMARK  192  A    between atoms: _463  and  _465
REMARK  193  A    between atoms: _465  and  _466
REMARK  194  A    between atoms: _465  and  _468
REMARK  195  A    between atoms: _471  and  _473
REMARK  196  A    between atoms: _473  and  _474
REMARK  197  A    between atoms: _473  and  _476
REMARK  198  A    between atoms: _476  and  _477
REMARK  199  A    between atoms: _481  and  _482
REMARK  200  A    between atoms: _487  and  _489
REMARK  201  A    between atoms: _489  and  _490
REMARK  202  A    between atoms: _489  and  _492
REMARK  203  A    between atoms: _492  and  _493
REMARK  204  A    between atoms: _497  and  _498
REMARK  205  A    between atoms: _503  and  _505
REMARK  206  A    between atoms: _505  and  _506
REMARK  207  A    between atoms: _505  and  _508
REMARK  208  A    between atoms: _511  and  _513
REMARK  209  A    between atoms: _513  and  _514
REMARK  210  A    between atoms: _513  and  _516
REMARK  211  A    between atoms: _516  and  _517
REMARK  212  A    between atoms: _522  and  _524
REMARK  213  A    between atoms: _524  and  _525
REMARK  214  A    between atoms: _524  and  _527
REMARK  215  A    between atoms: _527  and  _528
REMARK  216  A    between atoms: _531  and  _533
REMARK  217  A    between atoms: _533  and  _534
REMARK  218  A    between atoms: _533  and  _536
REMARK  219  A    between atoms: _536  and  _537
REMARK  220  A    between atoms: _540  and  _542
REMARK  221  A    between atoms: _542  and  _543
REMARK  222  A    between atoms: _545  and  _547
REMARK  223  A    between atoms: _547  and  _548
REMARK  224  A    between atoms: _547  and  _550
REMARK  225  A    between atoms: _550  and  _551
REMARK  226  A    between atoms: _551  and  _552
REMARK  227  A    between atoms: _552  and  _553
REMARK                            x       y       z     vdW  Elec       q    Type
REMARK                         _______ _______ _______ _____ _____    ______ ____
ROOT
ATOM      1  C   GLY A   5      12.958  -2.872  -0.018  0.00  0.00    +0.243 C 
ATOM      2  N   ILE A   6      13.412  -2.357   1.121  0.00  0.00    -0.297 N 
ATOM      3  H   ILE A   6      14.327  -1.862   1.108  0.00  0.00    +0.150 HD
ATOM      4  O   GLY A   5      11.974  -3.607  -0.089  0.00  0.00    -0.273 OA
ENDROOT
BRANCH   2   5
ATOM      5  CA  ILE A   6      12.693  -2.450   2.388  0.00  0.00    +0.149 C 
BRANCH   5   6
ATOM      6  C   ILE A   6      11.296  -1.774   2.243  0.00  0.00    +0.241 C 
ATOM      7  N   GLY A   7      10.243  -2.447   2.657  0.00  0.00    -0.295 N 
ATOM      8  H   GLY A   7      10.350  -3.401   3.058  0.00  0.00    +0.150 HD
ATOM      9  O   ILE A   6      11.171  -0.654   1.735  0.00  0.00    -0.273 OA
BRANCH   7  10
ATOM     10  CA  GLY A   7       8.922  -1.834   2.545  0.00  0.00    +0.176 C 
BRANCH  10  11
ATOM     11  C   GLY A   7       8.224  -1.899   1.192  0.00  0.00    +0.243 C 
ATOM     12  O   GLY A   7       7.053  -1.526   1.077  0.00  0.00    -0.273 OA
ATOM     13  N   GLY A   8       8.914  -2.370   0.163  0.00  0.00    -0.295 N 
ATOM     14  H   GLY A   8       9.933  -2.554   0.259  0.00  0.00    +0.150 HD
BRANCH  13  15
ATOM     15  CA  GLY A   8       8.246  -2.628  -1.094  0.00  0.00    +0.176 C 
BRANCH  15  16
ATOM     16  C   GLY A   8       8.932  -2.214  -2.376  0.00  0.00    +0.243 C 
ATOM     17  O   GLY A   8      10.163  -2.133  -2.431  0.00  0.00    -0.273 OA
ATOM     18  N   PHE A   9       8.135  -1.987  -3.432  0.00  0.00    -0.297 N 
ATOM     19  H   PHE A   9       7.108  -1.957  -3.271  0.00  0.00    +0.150 HD
BRANCH  18  20
ATOM     20  CA  PHE A   9       8.629  -1.777  -4.813  0.00  0.00    +0.153 C 
BRANCH  20  21
ATOM     21  C   PHE A   9       8.142  -0.432  -5.397  0.00  0.00    +0.241 C 
ATOM     22  O   PHE A   9       6.950  -0.124  -5.284  0.00  0.00    -0.273 OA
ATOM     23  N   ILE A  10       9.041   0.346  -6.030  0.00  0.00    -0.298 N 
ATOM     24  H   ILE A  10      10.034   0.038  -6.050  0.00  0.00    +0.150 HD
BRANCH  23  25
ATOM     25  CA  ILE A  10       8.687   1.606  -6.692  0.00  0.00    +0.137 C 
BRANCH  25  26
ATOM     26  C   ILE A  10       8.884   1.503  -8.208  0.00  0.00    +0.227 C 
ATOM     27  O   ILE A  10       9.671   0.681  -8.693  0.00  0.00    -0.286 OA
ENDBRANCH  25  26
BRANCH  25  28
ATOM     28  CB  ILE A  10       9.444   2.861  -6.145  0.00  0.00    +0.026 C 
ATOM     29  CG2 ILE A  10       9.012   3.230  -4.736  0.00  0.00    +0.002 C 
BRANCH  28  30
ATOM     30  CG1 ILE A  10      10.961   2.724  -6.264  0.00  0.00    +0.002 C 
ATOM     31  CD1 ILE A  10      11.657   4.098  -6.284  0.00  0.00    +0.000 C 
ENDBRANCH  28  30
ENDBRANCH  25  28
ENDBRANCH  23  25
ENDBRANCH  20  21
BRANCH  20  32
ATOM     32  CB  PHE A   9       8.121  -2.906  -5.739  0.00  0.00    +0.055 C 
BRANCH  32  33
ATOM     33  CG  PHE A   9       8.978  -4.170  -5.759  0.00  0.00    -0.020 A 
ATOM     34  CD2 PHE A   9       8.762  -5.196  -4.848  0.00  0.00    -0.004 A 
ATOM     35  CE2 PHE A   9       9.535  -6.365  -4.885  0.00  0.00    -0.000 A 
ATOM     36  CZ  PHE A   9      10.519  -6.524  -5.857  0.00  0.00    -0.000 A 
ATOM     37  CE1 PHE A   9      10.737  -5.522  -6.783  0.00  0.00    -0.000 A 
ATOM     38  CD1 PHE A   9       9.955  -4.356  -6.746  0.00  0.00    -0.004 A 
ENDBRANCH  32  33
ENDBRANCH  20  32
ENDBRANCH  18  20
ENDBRANCH  15  16
ENDBRANCH  13  15
ENDBRANCH  10  11
ENDBRANCH   7  10
ENDBRANCH   5   6
BRANCH   5  39
ATOM     39  CB  ILE A   6      13.571  -1.832   3.540  0.00  0.00    +0.027 C 
ATOM     40  CG2 ILE A   6      12.810  -0.821   4.360  0.00  0.00    +0.002 C 
BRANCH  39  41
ATOM     41  CG1 ILE A   6      13.992  -2.895   4.546  0.00  0.00    +0.002 C 
ATOM     42  CD1 ILE A   6      15.248  -3.640   4.241  0.00  0.00    +0.000 C 
ENDBRANCH  39  41
ENDBRANCH   5  39
ENDBRANCH   2   5
BRANCH   1  43
ATOM     43  CA  GLY A   5      13.727  -2.503  -1.264  0.00  0.00    +0.176 C 
BRANCH  43  45
ATOM     44  C   GLY A   4      13.468  -2.855  -3.657  0.00  0.00    +0.243 C 
ATOM     45  N   GLY A   5      12.929  -2.690  -2.461  0.00  0.00    -0.295 N 
ATOM     46  H   GLY A   5      11.893  -2.694  -2.375  0.00  0.00    +0.150 HD
ATOM     47  O   GLY A   4      14.688  -2.737  -3.899  0.00  0.00    -0.273 OA
BRANCH  44  48
ATOM     48  CA  GLY A   4      12.468  -3.181  -4.741  0.00  0.00    +0.176 C 
BRANCH  48  50
ATOM     49  C   ILE A   3      12.339  -1.941  -6.811  0.00  0.00    +0.241 C 
ATOM     50  N   GLY A   4      12.929  -2.880  -6.090  0.00  0.00    -0.295 N 
ATOM     51  H   GLY A   4      13.730  -3.409  -6.490  0.00  0.00    +0.150 HD
ATOM     52  O   ILE A   3      11.404  -1.290  -6.396  0.00  0.00    -0.273 OA
BRANCH  49  53
ATOM     53  CA  ILE A   3      12.912  -1.699  -8.186  0.00  0.00    +0.149 C 
BRANCH  53  55
ATOM     54  C   MET A   2      11.680  -1.880 -10.254  0.00  0.00    +0.241 C 
ATOM     55  N   ILE A   3      11.877  -1.243  -9.105  0.00  0.00    -0.297 N 
ATOM     56  H   ILE A   3      11.292  -0.418  -8.861  0.00  0.00    +0.150 HD
ATOM     57  O   MET A   2      12.472  -2.724 -10.681  0.00  0.00    -0.273 OA
BRANCH  54  58
ATOM     58  CA  MET A   2      10.441  -1.497 -11.079  0.00  0.00    +0.149 C 
BRANCH  58  60
ATOM     59  C   LYS A   1      10.794  -0.263 -13.172  0.00  0.00    +0.238 C 
ATOM     60  N   MET A   2      10.813  -1.410 -12.505  0.00  0.00    -0.297 N 
ATOM     61  H   MET A   2      11.100  -2.277 -13.003  0.00  0.00    +0.150 HD
ATOM     62  O   LYS A   1      10.359   0.773 -12.689  0.00  0.00    -0.274 OA
BRANCH  59  63
ATOM     63  CA  LYS A   1      11.310  -0.285 -14.604  0.00  0.00    +0.145 C 
BRANCH  63  64
ATOM     64  N   LYS A   1      10.646   0.773 -15.344  0.00  0.00    -0.238 NA
ATOM     65  H   LYS A   1      10.285   1.598 -14.824  0.00  0.00    +0.142 HD
ENDBRANCH  63  64
BRANCH  63  66
ATOM     66  CB  LYS A   1      12.833  -0.092 -14.650  0.00  0.00    +0.026 C 
BRANCH  66  67
ATOM     67  CG  LYS A   1      13.638  -1.306 -14.233  0.00  0.00    -0.000 C 
BRANCH  67  68
ATOM     68  CD  LYS A   1      15.009  -0.909 -13.716  0.00  0.00    -0.024 C 
BRANCH  68  69
ATOM     69  CE  LYS A   1      15.686  -2.018 -12.891  0.00  0.00    -0.086 C 
BRANCH  69  70
ATOM     70  NZ  LYS A   1      16.486  -3.001 -13.658  0.00  0.00    +0.380 N 
ATOM     71  HZ1 LYS A   1      16.894  -3.699 -13.004  0.00  0.00    -0.089 HD
ATOM     72  HZ2 LYS A   1      17.250  -2.507 -14.161  0.00  0.00    -0.089 HD
ATOM     73  HZ3 LYS A   1      15.873  -3.484 -14.345  0.00  0.00    -0.089 HD
ENDBRANCH  69  70
ENDBRANCH  68  69
ENDBRANCH  67  68
ENDBRANCH  66  67
ENDBRANCH  63  66
ENDBRANCH  59  63
ENDBRANCH  58  60
BRANCH  58  74
ATOM     74  CB  MET A   2       9.313  -2.517 -10.875  0.00  0.00    +0.041 C 
BRANCH  74  75
ATOM     75  CG  MET A   2       8.007  -2.194 -11.652  0.00  0.00    +0.060 C 
BRANCH  75  76
ATOM     76  SD  MET A   2       6.710  -1.483 -10.587  0.00  0.00    -0.139 S 
ATOM     77  CE  MET A   2       5.460  -0.974 -11.795  0.00  0.00    +0.069 C 
ENDBRANCH  75  76
ENDBRANCH  74  75
ENDBRANCH  58  74
ENDBRANCH  54  58
ENDBRANCH  53  55
BRANCH  53  78
ATOM     78  CB  ILE A   3      14.121  -0.720  -8.092  0.00  0.00    +0.027 C 
ATOM     79  CG2 ILE A   3      14.927  -0.735  -9.355  0.00  0.00    +0.002 C 
BRANCH  78  80
ATOM     80  CG1 ILE A   3      13.635   0.692  -7.757  0.00  0.00    +0.002 C 
ATOM     81  CD1 ILE A   3      14.729   1.700  -7.708  0.00  0.00    +0.000 C 
ENDBRANCH  78  80
ENDBRANCH  53  78
ENDBRANCH  49  53
ENDBRANCH  48  50
ENDBRANCH  44  48
ENDBRANCH  43  45
ENDBRANCH   1  43
TORSDOF 36
REMARK  Name = ../refined-set-2016/2p3b/2p3b_pocket.pdb
REMARK  227 active torsions:
REMARK  status: ('A' for Active; 'I' for Inactive)
REMARK    1  A    between atoms: _1  and  _3
REMARK    2  A    between atoms: _3  and  _4
REMARK    3  A    between atoms: _3  and  _6
REMARK    4  A    between atoms: _6  and  _7
REMARK    5  A    between atoms: _7  and  _8
REMARK    6  A    between atoms: _8  and  _9
REMARK    7  A    between atoms: _18  and  _20
REMARK    8  A    between atoms: _20  and  _21
REMARK    9  A    between atoms: _20  and  _23
REMARK   10  A    between atoms: _23  and  _24
REMARK   11  A    between atoms: _27  and  _29
REMARK   12  A    between atoms: _29  and  _30
REMARK   13  A    between atoms: _29  and  _32
REMARK   14  A    between atoms: _32  and  _33
REMARK   15  A    between atoms: _36  and  _38
REMARK   16  A    between atoms: _38  and  _39
REMARK   17  A    between atoms: _38  and  _41
REMARK   18  A    between atoms: _41  and  _42
REMARK   19  A    between atoms: _45  and  _47
REMARK   20  A    between atoms: _47  and  _48
REMARK   21  A    between atoms: _47  and  _50
REMARK   22  A    between atoms: _50  and  _51
REMARK   23  A    between atoms: _54  and  _56
REMARK   24  A    between atoms: _56  and  _57
REMARK   25  A    between atoms: _59  and  _61
REMARK   26  A    between atoms: _61  and  _62
REMARK   27  A    between atoms: _65  and  _67
REMARK   28  A    between atoms: _67  and  _68
REMARK   29  A    between atoms: _67  and  _70
REMARK   30  A    between atoms: _70  and  _71
REMARK   31  A    between atoms: _74  and  _76
REMARK   32  A    between atoms: _76  and  _77
REMARK   33  A    between atoms: _76  and  _79
REMARK   34  A    between atoms: _79  and  _80
REMARK   35  A    between atoms: _83  and  _85
REMARK   36  A    between atoms: _85  and  _86
REMARK   37  A    between atoms: _85  and  _88
REMARK   38  A    between atoms: _88  and  _89
REMARK   39  A    between atoms: _92  and  _94
REMARK   40  A    between atoms: _94  and  _95
REMARK   41  A    between atoms: _94  and  _97
REMARK   42  A    between atoms: _100  and  _102
REMARK   43  A    between atoms: _102  and  _103
REMARK   44  A    between atoms: _102  and  _105
REMARK   45  A    between atoms: _105  and  _106
REMARK   46  A    between atoms: _106  and  _107
REMARK   47  A    between atoms: _107  and  _108
REMARK   48  A    between atoms: _108  and  _109
REMARK   49  A    between atoms: _113  and  _115
REMARK   50  A    between atoms: _115  and  _116
REMARK   51  A    between atoms: _115  and  _118
REMARK   52  A    between atoms: _118  and  _119
REMARK   53  A    between atoms: _119  and  _120
REMARK   54  A    between atoms: _122  and  _124
REMARK   55  A    between atoms: _124  and  _125
REMARK   56  A    between atoms: _124  and  _127
REMARK   57  A    between atoms: _127  and  _128
REMARK   58  A    between atoms: _131  and  _133
REMARK   59  A    between atoms: _133  and  _134
REMARK   60  A    between atoms: _136  and  _138
REMARK   61  A    between atoms: _138  and  _139
REMARK   62  A    between atoms: _141  and  _143
REMARK   63  A    between atoms: _143  and  _144
REMARK   64  A    between atoms: _143  and  _146
REMARK   65  A    between atoms: _146  and  _147
REMARK   66  A    between atoms: _150  and  _152
REMARK   67  A    between atoms: _152  and  _153
REMARK   68  A    between atoms: _155  and  _157
REMARK   69  A    between atoms: _157  and  _158
REMARK   70  A    between atoms: _160  and  _162
REMARK   71  A    between atoms: _162  and  _163
REMARK   72  A    between atoms: _162  and  _165
REMARK   73  A    between atoms: _165  and  _166
REMARK   74  A    between atoms: _172  and  _174
REMARK   75  A    between atoms: _174  and  _175
REMARK   76  A    between atoms: _174  and  _177
REMARK   77  A    between atoms: _177  and  _178
REMARK   78  A    between atoms: _181  and  _183
REMARK   79  A    between atoms: _183  and  _184
REMARK   80  A    between atoms: _183  and  _186
REMARK   81  A    between atoms: _186  and  _187
REMARK   82  A    between atoms: _191  and  _192
REMARK   83  A    between atoms: _197  and  _199
REMARK   84  A    between atoms: _199  and  _200
REMARK   85  A    between atoms: _199  and  _202
REMARK   86  A    between atoms: _202  and  _203
REMARK   87  A    between atoms: _207  and  _208
REMARK   88  A    between atoms: _213  and  _215
REMARK   89  A    between atoms: _215  and  _216
REMARK   90  A    between atoms: _215  and  _218
REMARK   91  A    between atoms: _221  and  _223
REMARK   92  A    between atoms: _223  and  _224
REMARK   93  A    between atoms: _223  and  _226
REMARK   94  A    between atoms: _226  and  _227
REMARK   95  A    between atoms: _232  and  _234
REMARK   96  A    between atoms: _234  and  _235
REMARK   97  A    between atoms: _234  and  _237
REMARK   98  A    between atoms: _237  and  _238
REMARK   99  A    between atoms: _241  and  _243
REMARK  100  A    between atoms: _243  and  _244
REMARK  101  A    between atoms: _243  and  _246
REMARK  102  A    between atoms: _246  and  _247
REMARK  103  A    between atoms: _250  and  _252
REMARK  104  A    between atoms: _252  and  _253
REMARK  105  A    between atoms: _255  and  _257
REMARK  106  A    between atoms: _257  and  _258
REMARK  107  A    between atoms: _257  and  _260
REMARK  108  A    between atoms: _260  and  _261
REMARK  109  A    between atoms: _261  and  _262
REMARK  110  A    between atoms: _262  and  _263
REMARK  111  A    between atoms: _272  and  _274
REMARK  112  A    between atoms: _274  and  _275
REMARK  113  A    between atoms: _274  and  _277
REMARK  114  A    between atoms: _277  and  _278
REMARK  115  A    between atoms: _283  and  _285
REMARK  116  A    between atoms: _285  and  _286
REMARK  117  A    between atoms: _285  and  _288
REMARK  118  A    between atoms: _288  and  _289
REMARK  119  A    between atoms: _289  and  _290
REMARK  120  A    between atoms: _290  and  _291
REMARK  121  A    between atoms: _300  and  _302
REMARK  122  A    between atoms: _302  and  _303
REMARK  123  A    between atoms: _302  and  _305
REMARK  124  A    between atoms: _305  and  _306
REMARK  125  A    between atoms: _309  and  _311
REMARK  126  A    between atoms: _311  and  _312
REMARK  127  A    between atoms: _311  and  _314
REMARK  128  A    between atoms: _314  and  _315
REMARK  129  A    between atoms: _318  and  _320
REMARK  130  A    between atoms: _320  and  _321
REMARK  131  A    between atoms: _320  and  _323
REMARK  132  A    between atoms: _323  and  _324
REMARK  133  A    between atoms: _327  and  _329
REMARK  134  A    between atoms: _329  and  _330
REMARK  135  A    between atoms: _329  and  _332
REMARK  136  A    between atoms: _332  and  _333
REMARK  137  A    between atoms: _336  and  _338
REMARK  138  A    between atoms: _338  and  _339
REMARK  139  A    between atoms: _341  and  _343
REMARK  140  A    between atoms: _343  and  _344
REMARK  141  A    between atoms: _347  and  _349
REMARK  142  A    between atoms: _349  and  _350
REMARK  143  A    between atoms: _349  and  _352
REMARK  144  A    between atoms: _352  and  _353
REMARK  145  A    between atoms: _356  and  _358
REMARK  146  A    between atoms: _358  and  _359
REMARK  147  A    between atoms: _358  and  _361
REMARK  148  A    between atoms: _361  and  _362
REMARK  149  A    between atoms: _365  and  _367
REMARK  150  A    between atoms: _367  and  _368
REMARK  151  A    between atoms: _367  and  _370
REMARK  152  A    between atoms: _370  and  _371
REMARK  153  A    between atoms: _374  and  _376
REMARK  154  A    between atoms: _376  and  _377
REMARK  155  A    between atoms: _376  and  _379
REMARK  156  A    between atoms: _382  and  _384
REMARK  157  A    between atoms: _384  and  _385
REMARK  158  A    between atoms: _384  and  _387
REMARK  159  A    between atoms: _387  and  _388
REMARK  160  A    between atoms: _388  and  _389
REMARK  161  A    between atoms: _389  and  _390
REMARK  162  A    between atoms: _390  and  _391
REMARK  163  A    between atoms: _395  and  _397
REMARK  164  A    between atoms: _397  and  _398
REMARK  165  A    between atoms: _397  and  _400
REMARK  166  A    between atoms: _400  and  _401
REMARK  167  A    between atoms: _401  and  _402
REMARK  168  A    between atoms: _404  and  _406
REMARK  169  A    between atoms: _406  and  _407
REMARK  170  A    between atoms: _406  and  _409
REMARK  171  A    between atoms: _409  and  _410
REMARK  172  A    between atoms: _413  and  _415
REMARK  173  A    between atoms: _415  and  _416
REMARK  174  A    between atoms: _418  and  _420
REMARK  175  A    between atoms: _420  and  _421
REMARK  176  A    between atoms: _423  and  _425
REMARK  177  A    between atoms: _425  and  _426
REMARK  178  A    between atoms: _425  and  _428
REMARK  179  A    between atoms: _428  and  _429
REMARK  180  A    between atoms: _432  and  _434
REMARK  181  A    between atoms: _434  and  _435
REMARK  182  A    between atoms: _437  and  _439
REMARK  183  A    between atoms: _439  and  _440
REMARK  184  A    between atoms: _442  and  _444
REMARK  185  A    between atoms: _444  and  _445
REMARK  186  A    between atoms: _444  and  _447
REMARK  187  A    between atoms: _447  and  _448
REMARK  188  A    between atoms: _454  and  _456
REMARK  189  A    between atoms: _456  and  _457
REMARK  190  A    between atoms: _456  and  _459
REMARK  191  A    between atoms: _459  and  _460
REMARK  192  A    between atoms: _463  and  _465
REMARK  193  A    between atoms: _465  and  _466
REMARK  194  A    between atoms: _465  and  _468
REMARK  195  A    between atoms: _471  and  _473
REMARK  196  A    between atoms: _473  and  _474
REMARK  197  A    between atoms: _473  and  _476
REMARK  198  A    between atoms: _476  and  _477
REMARK  199  A    between atoms: _481  and  _482
REMARK  200  A    between atoms: _487  and  _489
REMARK  201  A    between atoms: _489  and  _490
REMARK  202  A    between atoms: _489  and  _492
REMARK  203  A    between atoms: _492  and  _493
REMARK  204  A    between atoms: _497  and  _498
REMARK  205  A    between atoms: _503  and  _505
REMARK  206  A    between atoms: _505  and  _506
REMARK  207  A    between atoms: _505  and  _508
REMARK  208  A    between atoms: _511  and  _513
REMARK  209  A    between atoms: _513  and  _514
REMARK  210  A    between atoms: _513  and  _516
REMARK  211  A    between atoms: _516  and  _517
REMARK  212  A    between atoms: _522  and  _524
REMARK  213  A    between atoms: _524  and  _525
REMARK  214  A    between atoms: _524  and  _527
REMARK  215  A    between atoms: _527  and  _528
REMARK  216  A    between atoms: _531  and  _533
REMARK  217  A    between atoms: _533  and  _534
REMARK  218  A    between atoms: _533  and  _536
REMARK  219  A    between atoms: _536  and  _537
REMARK  220  A    between atoms: _540  and  _542
REMARK  221  A    between atoms: _542  and  _543
REMARK  222  A    between atoms: _545  and  _547
REMARK  223  A    between atoms: _547  and  _548
REMARK  224  A    between atoms: _547  and  _550
REMARK  225  A    between atoms: _550  and  _551
REMARK  226  A    between atoms: _551  and  _552
REMARK  227  A    between atoms: _552  and  _553
REMARK                            x       y       z     vdW  Elec       q    Type
REMARK                         _______ _______ _______ _____ _____    ______ ____
ROOT
ATOM      1  CA  VAL A   1      11.296   4.360 -11.917  0.00  0.00    +0.133 C 
ENDROOT
BRANCH   1   2
ATOM      2  CB  VAL A   1      12.703   4.005 -11.305  0.00  0.00    +0.023 C 
ATOM      3  CG2 VAL A   1      12.699   4.101  -9.779  0.00  0.00    +0.002 C 
ATOM      4  CG1 VAL A   1      13.147   2.638 -11.748  0.00  0.00    +0.002 C 
ENDBRANCH   1   2
BRANCH   1   5
ATOM      5  N   VAL A   1      10.273   3.381 -11.575  0.00  0.00    -0.239 NA
ATOM      6  H   VAL A   1      10.277   2.463 -12.063  0.00  0.00    +0.142 HD
ENDBRANCH   1   5
BRANCH   1   7
ATOM      7  C   VAL A   1      11.444   4.458 -13.428  0.00  0.00    +0.224 C 
ATOM      8  O   VAL A   1      10.971   3.593 -14.174  0.00  0.00    -0.287 OA
ENDBRANCH   1   7
TORSDOF 3
REMARK  Name = ../refined-set-2016/2p3b/2p3b_pocket.pdb
REMARK  227 active torsions:
REMARK  status: ('A' for Active; 'I' for Inactive)
REMARK    1  A    between atoms: _1  and  _3
REMARK    2  A    between atoms: _3  and  _4
REMARK    3  A    between atoms: _3  and  _6
REMARK    4  A    between atoms: _6  and  _7
REMARK    5  A    between atoms: _7  and  _8
REMARK    6  A    between atoms: _8  and  _9
REMARK    7  A    between atoms: _18  and  _20
REMARK    8  A    between atoms: _20  and  _21
REMARK    9  A    between atoms: _20  and  _23
REMARK   10  A    between atoms: _23  and  _24
REMARK   11  A    between atoms: _27  and  _29
REMARK   12  A    between atoms: _29  and  _30
REMARK   13  A    between atoms: _29  and  _32
REMARK   14  A    between atoms: _32  and  _33
REMARK   15  A    between atoms: _36  and  _38
REMARK   16  A    between atoms: _38  and  _39
REMARK   17  A    between atoms: _38  and  _41
REMARK   18  A    between atoms: _41  and  _42
REMARK   19  A    between atoms: _45  and  _47
REMARK   20  A    between atoms: _47  and  _48
REMARK   21  A    between atoms: _47  and  _50
REMARK   22  A    between atoms: _50  and  _51
REMARK   23  A    between atoms: _54  and  _56
REMARK   24  A    between atoms: _56  and  _57
REMARK   25  A    between atoms: _59  and  _61
REMARK   26  A    between atoms: _61  and  _62
REMARK   27  A    between atoms: _65  and  _67
REMARK   28  A    between atoms: _67  and  _68
REMARK   29  A    between atoms: _67  and  _70
REMARK   30  A    between atoms: _70  and  _71
REMARK   31  A    between atoms: _74  and  _76
REMARK   32  A    between atoms: _76  and  _77
REMARK   33  A    between atoms: _76  and  _79
REMARK   34  A    between atoms: _79  and  _80
REMARK   35  A    between atoms: _83  and  _85
REMARK   36  A    between atoms: _85  and  _86
REMARK   37  A    between atoms: _85  and  _88
REMARK   38  A    between atoms: _88  and  _89
REMARK   39  A    between atoms: _92  and  _94
REMARK   40  A    between atoms: _94  and  _95
REMARK   41  A    between atoms: _94  and  _97
REMARK   42  A    between atoms: _100  and  _102
REMARK   43  A    between atoms: _102  and  _103
REMARK   44  A    between atoms: _102  and  _105
REMARK   45  A    between atoms: _105  and  _106
REMARK   46  A    between atoms: _106  and  _107
REMARK   47  A    between atoms: _107  and  _108
REMARK   48  A    between atoms: _108  and  _109
REMARK   49  A    between atoms: _113  and  _115
REMARK   50  A    between atoms: _115  and  _116
REMARK   51  A    between atoms: _115  and  _118
REMARK   52  A    between atoms: _118  and  _119
REMARK   53  A    between atoms: _119  and  _120
REMARK   54  A    between atoms: _122  and  _124
REMARK   55  A    between atoms: _124  and  _125
REMARK   56  A    between atoms: _124  and  _127
REMARK   57  A    between atoms: _127  and  _128
REMARK   58  A    between atoms: _131  and  _133
REMARK   59  A    between atoms: _133  and  _134
REMARK   60  A    between atoms: _136  and  _138
REMARK   61  A    between atoms: _138  and  _139
REMARK   62  A    between atoms: _141  and  _143
REMARK   63  A    between atoms: _143  and  _144
REMARK   64  A    between atoms: _143  and  _146
REMARK   65  A    between atoms: _146  and  _147
REMARK   66  A    between atoms: _150  and  _152
REMARK   67  A    between atoms: _152  and  _153
REMARK   68  A    between atoms: _155  and  _157
REMARK   69  A    between atoms: _157  and  _158
REMARK   70  A    between atoms: _160  and  _162
REMARK   71  A    between atoms: _162  and  _163
REMARK   72  A    between atoms: _162  and  _165
REMARK   73  A    between atoms: _165  and  _166
REMARK   74  A    between atoms: _172  and  _174
REMARK   75  A    between atoms: _174  and  _175
REMARK   76  A    between atoms: _174  and  _177
REMARK   77  A    between atoms: _177  and  _178
REMARK   78  A    between atoms: _181  and  _183
REMARK   79  A    between atoms: _183  and  _184
REMARK   80  A    between atoms: _183  and  _186
REMARK   81  A    between atoms: _186  and  _187
REMARK   82  A    between atoms: _191  and  _192
REMARK   83  A    between atoms: _197  and  _199
REMARK   84  A    between atoms: _199  and  _200
REMARK   85  A    between atoms: _199  and  _202
REMARK   86  A    between atoms: _202  and  _203
REMARK   87  A    between atoms: _207  and  _208
REMARK   88  A    between atoms: _213  and  _215
REMARK   89  A    between atoms: _215  and  _216
REMARK   90  A    between atoms: _215  and  _218
REMARK   91  A    between atoms: _221  and  _223
REMARK   92  A    between atoms: _223  and  _224
REMARK   93  A    between atoms: _223  and  _226
REMARK   94  A    between atoms: _226  and  _227
REMARK   95  A    between atoms: _232  and  _234
REMARK   96  A    between atoms: _234  and  _235
REMARK   97  A    between atoms: _234  and  _237
REMARK   98  A    between atoms: _237  and  _238
REMARK   99  A    between atoms: _241  and  _243
REMARK  100  A    between atoms: _243  and  _244
REMARK  101  A    between atoms: _243  and  _246
REMARK  102  A    between atoms: _246  and  _247
REMARK  103  A    between atoms: _250  and  _252
REMARK  104  A    between atoms: _252  and  _253
REMARK  105  A    between atoms: _255  and  _257
REMARK  106  A    between atoms: _257  and  _258
REMARK  107  A    between atoms: _257  and  _260
REMARK  108  A    between atoms: _260  and  _261
REMARK  109  A    between atoms: _261  and  _262
REMARK  110  A    between atoms: _262  and  _263
REMARK  111  A    between atoms: _272  and  _274
REMARK  112  A    between atoms: _274  and  _275
REMARK  113  A    between atoms: _274  and  _277
REMARK  114  A    between atoms: _277  and  _278
REMARK  115  A    between atoms: _283  and  _285
REMARK  116  A    between atoms: _285  and  _286
REMARK  117  A    between atoms: _285  and  _288
REMARK  118  A    between atoms: _288  and  _289
REMARK  119  A    between atoms: _289  and  _290
REMARK  120  A    between atoms: _290  and  _291
REMARK  121  A    between atoms: _300  and  _302
REMARK  122  A    between atoms: _302  and  _303
REMARK  123  A    between atoms: _302  and  _305
REMARK  124  A    between atoms: _305  and  _306
REMARK  125  A    between atoms: _309  and  _311
REMARK  126  A    between atoms: _311  and  _312
REMARK  127  A    between atoms: _311  and  _314
REMARK  128  A    between atoms: _314  and  _315
REMARK  129  A    between atoms: _318  and  _320
REMARK  130  A    between atoms: _320  and  _321
REMARK  131  A    between atoms: _320  and  _323
REMARK  132  A    between atoms: _323  and  _324
REMARK  133  A    between atoms: _327  and  _329
REMARK  134  A    between atoms: _329  and  _330
REMARK  135  A    between atoms: _329  and  _332
REMARK  136  A    between atoms: _332  and  _333
REMARK  137  A    between atoms: _336  and  _338
REMARK  138  A    between atoms: _338  and  _339
REMARK  139  A    between atoms: _341  and  _343
REMARK  140  A    between atoms: _343  and  _344
REMARK  141  A    between atoms: _347  and  _349
REMARK  142  A    between atoms: _349  and  _350
REMARK  143  A    between atoms: _349  and  _352
REMARK  144  A    between atoms: _352  and  _353
REMARK  145  A    between atoms: _356  and  _358
REMARK  146  A    between atoms: _358  and  _359
REMARK  147  A    between atoms: _358  and  _361
REMARK  148  A    between atoms: _361  and  _362
REMARK  149  A    between atoms: _365  and  _367
REMARK  150  A    between atoms: _367  and  _368
REMARK  151  A    between atoms: _367  and  _370
REMARK  152  A    between atoms: _370  and  _371
REMARK  153  A    between atoms: _374  and  _376
REMARK  154  A    between atoms: _376  and  _377
REMARK  155  A    between atoms: _376  and  _379
REMARK  156  A    between atoms: _382  and  _384
REMARK  157  A    between atoms: _384  and  _385
REMARK  158  A    between atoms: _384  and  _387
REMARK  159  A    between atoms: _387  and  _388
REMARK  160  A    between atoms: _388  and  _389
REMARK  161  A    between atoms: _389  and  _390
REMARK  162  A    between atoms: _390  and  _391
REMARK  163  A    between atoms: _395  and  _397
REMARK  164  A    between atoms: _397  and  _398
REMARK  165  A    between atoms: _397  and  _400
REMARK  166  A    between atoms: _400  and  _401
REMARK  167  A    between atoms: _401  and  _402
REMARK  168  A    between atoms: _404  and  _406
REMARK  169  A    between atoms: _406  and  _407
REMARK  170  A    between atoms: _406  and  _409
REMARK  171  A    between atoms: _409  and  _410
REMARK  172  A    between atoms: _413  and  _415
REMARK  173  A    between atoms: _415  and  _416
REMARK  174  A    between atoms: _418  and  _420
REMARK  175  A    between atoms: _420  and  _421
REMARK  176  A    between atoms: _423  and  _425
REMARK  177  A    between atoms: _425  and  _426
REMARK  178  A    between atoms: _425  and  _428
REMARK  179  A    between atoms: _428  and  _429
REMARK  180  A    between atoms: _432  and  _434
REMARK  181  A    between atoms: _434  and  _435
REMARK  182  A    between atoms: _437  and  _439
REMARK  183  A    between atoms: _439  and  _440
REMARK  184  A    between atoms: _442  and  _444
REMARK  185  A    between atoms: _444  and  _445
REMARK  186  A    between atoms: _444  and  _447
REMARK  187  A    between atoms: _447  and  _448
REMARK  188  A    between atoms: _454  and  _456
REMARK  189  A    between atoms: _456  and  _457
REMARK  190  A    between atoms: _456  and  _459
REMARK  191  A    between atoms: _459  and  _460
REMARK  192  A    between atoms: _463  and  _465
REMARK  193  A    between atoms: _465  and  _466
REMARK  194  A    between atoms: _465  and  _468
REMARK  195  A    between atoms: _471  and  _473
REMARK  196  A    between atoms: _473  and  _474
REMARK  197  A    between atoms: _473  and  _476
REMARK  198  A    between atoms: _476  and  _477
REMARK  199  A    between atoms: _481  and  _482
REMARK  200  A    between atoms: _487  and  _489
REMARK  201  A    between atoms: _489  and  _490
REMARK  202  A    between atoms: _489  and  _492
REMARK  203  A    between atoms: _492  and  _493
REMARK  204  A    between atoms: _497  and  _498
REMARK  205  A    between atoms: _503  and  _505
REMARK  206  A    between atoms: _505  and  _506
REMARK  207  A    between atoms: _505  and  _508
REMARK  208  A    between atoms: _511  and  _513
REMARK  209  A    between atoms: _513  and  _514
REMARK  210  A    between atoms: _513  and  _516
REMARK  211  A    between atoms: _516  and  _517
REMARK  212  A    between atoms: _522  and  _524
REMARK  213  A    between atoms: _524  and  _525
REMARK  214  A    between atoms: _524  and  _527
REMARK  215  A    between atoms: _527  and  _528
REMARK  216  A    between atoms: _531  and  _533
REMARK  217  A    between atoms: _533  and  _534
REMARK  218  A    between atoms: _533  and  _536
REMARK  219  A    between atoms: _536  and  _537
REMARK  220  A    between atoms: _540  and  _542
REMARK  221  A    between atoms: _542  and  _543
REMARK  222  A    between atoms: _545  and  _547
REMARK  223  A    between atoms: _547  and  _548
REMARK  224  A    between atoms: _547  and  _550
REMARK  225  A    between atoms: _550  and  _551
REMARK  226  A    between atoms: _551  and  _552
REMARK  227  A    between atoms: _552  and  _553
REMARK                            x       y       z     vdW  Elec       q    Type
REMARK                         _______ _______ _______ _____ _____    ______ ____
ROOT
ATOM      1  CA  LEU A   1      17.224   5.273 -12.739  0.00  0.00    +0.133 C 
ENDROOT
BRANCH   1   2
ATOM      2  N   LEU A   1      18.668   5.329 -12.948  0.00  0.00    -0.239 NA
ATOM      3  H   LEU A   1      19.297   5.126 -12.145  0.00  0.00    +0.142 HD
ENDBRANCH   1   2
BRANCH   1   4
ATOM      4  C   LEU A   1      16.762   6.538 -12.025  0.00  0.00    +0.224 C 
ATOM      5  O   LEU A   1      17.469   7.082 -11.139  0.00  0.00    -0.287 OA
ENDBRANCH   1   4
BRANCH   1   6
ATOM      6  CB  LEU A   1      16.814   4.016 -11.924  0.00  0.00    +0.025 C 
BRANCH   6   7
ATOM      7  CG  LEU A   1      17.418   2.678 -12.354  0.00  0.00    +0.002 C 
ATOM      8  CD2 LEU A   1      16.951   1.579 -11.442  0.00  0.00    +0.000 C 
ATOM      9  CD1 LEU A   1      17.030   2.354 -13.822  0.00  0.00    +0.000 C 
ENDBRANCH   6   7
ENDBRANCH   1   6
TORSDOF 4
REMARK  Name = ../refined-set-2016/2p3b/2p3b_pocket.pdb
REMARK  227 active torsions:
REMARK  status: ('A' for Active; 'I' for Inactive)
REMARK    1  A    between atoms: _1  and  _3
REMARK    2  A    between atoms: _3  and  _4
REMARK    3  A    between atoms: _3  and  _6
REMARK    4  A    between atoms: _6  and  _7
REMARK    5  A    between atoms: _7  and  _8
REMARK    6  A    between atoms: _8  and  _9
REMARK    7  A    between atoms: _18  and  _20
REMARK    8  A    between atoms: _20  and  _21
REMARK    9  A    between atoms: _20  and  _23
REMARK   10  A    between atoms: _23  and  _24
REMARK   11  A    between atoms: _27  and  _29
REMARK   12  A    between atoms: _29  and  _30
REMARK   13  A    between atoms: _29  and  _32
REMARK   14  A    between atoms: _32  and  _33
REMARK   15  A    between atoms: _36  and  _38
REMARK   16  A    between atoms: _38  and  _39
REMARK   17  A    between atoms: _38  and  _41
REMARK   18  A    between atoms: _41  and  _42
REMARK   19  A    between atoms: _45  and  _47
REMARK   20  A    between atoms: _47  and  _48
REMARK   21  A    between atoms: _47  and  _50
REMARK   22  A    between atoms: _50  and  _51
REMARK   23  A    between atoms: _54  and  _56
REMARK   24  A    between atoms: _56  and  _57
REMARK   25  A    between atoms: _59  and  _61
REMARK   26  A    between atoms: _61  and  _62
REMARK   27  A    between atoms: _65  and  _67
REMARK   28  A    between atoms: _67  and  _68
REMARK   29  A    between atoms: _67  and  _70
REMARK   30  A    between atoms: _70  and  _71
REMARK   31  A    between atoms: _74  and  _76
REMARK   32  A    between atoms: _76  and  _77
REMARK   33  A    between atoms: _76  and  _79
REMARK   34  A    between atoms: _79  and  _80
REMARK   35  A    between atoms: _83  and  _85
REMARK   36  A    between atoms: _85  and  _86
REMARK   37  A    between atoms: _85  and  _88
REMARK   38  A    between atoms: _88  and  _89
REMARK   39  A    between atoms: _92  and  _94
REMARK   40  A    between atoms: _94  and  _95
REMARK   41  A    between atoms: _94  and  _97
REMARK   42  A    between atoms: _100  and  _102
REMARK   43  A    between atoms: _102  and  _103
REMARK   44  A    between atoms: _102  and  _105
REMARK   45  A    between atoms: _105  and  _106
REMARK   46  A    between atoms: _106  and  _107
REMARK   47  A    between atoms: _107  and  _108
REMARK   48  A    between atoms: _108  and  _109
REMARK   49  A    between atoms: _113  and  _115
REMARK   50  A    between atoms: _115  and  _116
REMARK   51  A    between atoms: _115  and  _118
REMARK   52  A    between atoms: _118  and  _119
REMARK   53  A    between atoms: _119  and  _120
REMARK   54  A    between atoms: _122  and  _124
REMARK   55  A    between atoms: _124  and  _125
REMARK   56  A    between atoms: _124  and  _127
REMARK   57  A    between atoms: _127  and  _128
REMARK   58  A    between atoms: _131  and  _133
REMARK   59  A    between atoms: _133  and  _134
REMARK   60  A    between atoms: _136  and  _138
REMARK   61  A    between atoms: _138  and  _139
REMARK   62  A    between atoms: _141  and  _143
REMARK   63  A    between atoms: _143  and  _144
REMARK   64  A    between atoms: _143  and  _146
REMARK   65  A    between atoms: _146  and  _147
REMARK   66  A    between atoms: _150  and  _152
REMARK   67  A    between atoms: _152  and  _153
REMARK   68  A    between atoms: _155  and  _157
REMARK   69  A    between atoms: _157  and  _158
REMARK   70  A    between atoms: _160  and  _162
REMARK   71  A    between atoms: _162  and  _163
REMARK   72  A    between atoms: _162  and  _165
REMARK   73  A    between atoms: _165  and  _166
REMARK   74  A    between atoms: _172  and  _174
REMARK   75  A    between atoms: _174  and  _175
REMARK   76  A    between atoms: _174  and  _177
REMARK   77  A    between atoms: _177  and  _178
REMARK   78  A    between atoms: _181  and  _183
REMARK   79  A    between atoms: _183  and  _184
REMARK   80  A    between atoms: _183  and  _186
REMARK   81  A    between atoms: _186  and  _187
REMARK   82  A    between atoms: _191  and  _192
REMARK   83  A    between atoms: _197  and  _199
REMARK   84  A    between atoms: _199  and  _200
REMARK   85  A    between atoms: _199  and  _202
REMARK   86  A    between atoms: _202  and  _203
REMARK   87  A    between atoms: _207  and  _208
REMARK   88  A    between atoms: _213  and  _215
REMARK   89  A    between atoms: _215  and  _216
REMARK   90  A    between atoms: _215  and  _218
REMARK   91  A    between atoms: _221  and  _223
REMARK   92  A    between atoms: _223  and  _224
REMARK   93  A    between atoms: _223  and  _226
REMARK   94  A    between atoms: _226  and  _227
REMARK   95  A    between atoms: _232  and  _234
REMARK   96  A    between atoms: _234  and  _235
REMARK   97  A    between atoms: _234  and  _237
REMARK   98  A    between atoms: _237  and  _238
REMARK   99  A    between atoms: _241  and  _243
REMARK  100  A    between atoms: _243  and  _244
REMARK  101  A    between atoms: _243  and  _246
REMARK  102  A    between atoms: _246  and  _247
REMARK  103  A    between atoms: _250  and  _252
REMARK  104  A    between atoms: _252  and  _253
REMARK  105  A    between atoms: _255  and  _257
REMARK  106  A    between atoms: _257  and  _258
REMARK  107  A    between atoms: _257  and  _260
REMARK  108  A    between atoms: _260  and  _261
REMARK  109  A    between atoms: _261  and  _262
REMARK  110  A    between atoms: _262  and  _263
REMARK  111  A    between atoms: _272  and  _274
REMARK  112  A    between atoms: _274  and  _275
REMARK  113  A    between atoms: _274  and  _277
REMARK  114  A    between atoms: _277  and  _278
REMARK  115  A    between atoms: _283  and  _285
REMARK  116  A    between atoms: _285  and  _286
REMARK  117  A    between atoms: _285  and  _288
REMARK  118  A    between atoms: _288  and  _289
REMARK  119  A    between atoms: _289  and  _290
REMARK  120  A    between atoms: _290  and  _291
REMARK  121  A    between atoms: _300  and  _302
REMARK  122  A    between atoms: _302  and  _303
REMARK  123  A    between atoms: _302  and  _305
REMARK  124  A    between atoms: _305  and  _306
REMARK  125  A    between atoms: _309  and  _311
REMARK  126  A    between atoms: _311  and  _312
REMARK  127  A    between atoms: _311  and  _314
REMARK  128  A    between atoms: _314  and  _315
REMARK  129  A    between atoms: _318  and  _320
REMARK  130  A    between atoms: _320  and  _321
REMARK  131  A    between atoms: _320  and  _323
REMARK  132  A    between atoms: _323  and  _324
REMARK  133  A    between atoms: _327  and  _329
REMARK  134  A    between atoms: _329  and  _330
REMARK  135  A    between atoms: _329  and  _332
REMARK  136  A    between atoms: _332  and  _333
REMARK  137  A    between atoms: _336  and  _338
REMARK  138  A    between atoms: _338  and  _339
REMARK  139  A    between atoms: _341  and  _343
REMARK  140  A    between atoms: _343  and  _344
REMARK  141  A    between atoms: _347  and  _349
REMARK  142  A    between atoms: _349  and  _350
REMARK  143  A    between atoms: _349  and  _352
REMARK  144  A    between atoms: _352  and  _353
REMARK  145  A    between atoms: _356  and  _358
REMARK  146  A    between atoms: _358  and  _359
REMARK  147  A    between atoms: _358  and  _361
REMARK  148  A    between atoms: _361  and  _362
REMARK  149  A    between atoms: _365  and  _367
REMARK  150  A    between atoms: _367  and  _368
REMARK  151  A    between atoms: _367  and  _370
REMARK  152  A    between atoms: _370  and  _371
REMARK  153  A    between atoms: _374  and  _376
REMARK  154  A    between atoms: _376  and  _377
REMARK  155  A    between atoms: _376  and  _379
REMARK  156  A    between atoms: _382  and  _384
REMARK  157  A    between atoms: _384  and  _385
REMARK  158  A    between atoms: _384  and  _387
REMARK  159  A    between atoms: _387  and  _388
REMARK  160  A    between atoms: _388  and  _389
REMARK  161  A    between atoms: _389  and  _390
REMARK  162  A    between atoms: _390  and  _391
REMARK  163  A    between atoms: _395  and  _397
REMARK  164  A    between atoms: _397  and  _398
REMARK  165  A    between atoms: _397  and  _400
REMARK  166  A    between atoms: _400  and  _401
REMARK  167  A    between atoms: _401  and  _402
REMARK  168  A    between atoms: _404  and  _406
REMARK  169  A    between atoms: _406  and  _407
REMARK  170  A    between atoms: _406  and  _409
REMARK  171  A    between atoms: _409  and  _410
REMARK  172  A    between atoms: _413  and  _415
REMARK  173  A    between atoms: _415  and  _416
REMARK  174  A    between atoms: _418  and  _420
REMARK  175  A    between atoms: _420  and  _421
REMARK  176  A    between atoms: _423  and  _425
REMARK  177  A    between atoms: _425  and  _426
REMARK  178  A    between atoms: _425  and  _428
REMARK  179  A    between atoms: _428  and  _429
REMARK  180  A    between atoms: _432  and  _434
REMARK  181  A    between atoms: _434  and  _435
REMARK  182  A    between atoms: _437  and  _439
REMARK  183  A    between atoms: _439  and  _440
REMARK  184  A    between atoms: _442  and  _444
REMARK  185  A    between atoms: _444  and  _445
REMARK  186  A    between atoms: _444  and  _447
REMARK  187  A    between atoms: _447  and  _448
REMARK  188  A    between atoms: _454  and  _456
REMARK  189  A    between atoms: _456  and  _457
REMARK  190  A    between atoms: _456  and  _459
REMARK  191  A    between atoms: _459  and  _460
REMARK  192  A    between atoms: _463  and  _465
REMARK  193  A    between atoms: _465  and  _466
REMARK  194  A    between atoms: _465  and  _468
REMARK  195  A    between atoms: _471  and  _473
REMARK  196  A    between atoms: _473  and  _474
REMARK  197  A    between atoms: _473  and  _476
REMARK  198  A    between atoms: _476  and  _477
REMARK  199  A    between atoms: _481  and  _482
REMARK  200  A    between atoms: _487  and  _489
REMARK  201  A    between atoms: _489  and  _490
REMARK  202  A    between atoms: _489  and  _492
REMARK  203  A    between atoms: _492  and  _493
REMARK  204  A    between atoms: _497  and  _498
REMARK  205  A    between atoms: _503  and  _505
REMARK  206  A    between atoms: _505  and  _506
REMARK  207  A    between atoms: _505  and  _508
REMARK  208  A    between atoms: _511  and  _513
REMARK  209  A    between atoms: _513  and  _514
REMARK  210  A    between atoms: _513  and  _516
REMARK  211  A    between atoms: _516  and  _517
REMARK  212  A    between atoms: _522  and  _524
REMARK  213  A    between atoms: _524  and  _525
REMARK  214  A    between atoms: _524  and  _527
REMARK  215  A    between atoms: _527  and  _528
REMARK  216  A    between atoms: _531  and  _533
REMARK  217  A    between atoms: _533  and  _534
REMARK  218  A    between atoms: _533  and  _536
REMARK  219  A    between atoms: _536  and  _537
REMARK  220  A    between atoms: _540  and  _542
REMARK  221  A    between atoms: _542  and  _543
REMARK  222  A    between atoms: _545  and  _547
REMARK  223  A    between atoms: _547  and  _548
REMARK  224  A    between atoms: _547  and  _550
REMARK  225  A    between atoms: _550  and  _551
REMARK  226  A    between atoms: _551  and  _552
REMARK  227  A    between atoms: _552  and  _553
REMARK                            x       y       z     vdW  Elec       q    Type
REMARK                         _______ _______ _______ _____ _____    ______ ____
ROOT
ATOM      1  C   ASN A   5      21.226   8.770  -4.097  0.00  0.00    +0.241 C 
ATOM      2  O   ASN A   5      21.950   8.824  -3.139  0.00  0.00    -0.273 OA
ATOM      3  N   ILE A   6      21.137   7.708  -4.893  0.00  0.00    -0.297 N 
ATOM      4  H   ILE A   6      20.509   7.762  -5.720  0.00  0.00    +0.150 HD
ENDROOT
BRANCH   1   5
ATOM      5  CA  ASN A   5      20.304   9.961  -4.437  0.00  0.00    +0.158 C 
BRANCH   5   7
ATOM      6  C   VAL A   4      18.654   9.657  -2.683  0.00  0.00    +0.241 C 
ATOM      7  N   ASN A   5      19.632  10.369  -3.222  0.00  0.00    -0.297 N 
ATOM      8  H   ASN A   5      19.927  11.251  -2.756  0.00  0.00    +0.150 HD
ATOM      9  O   VAL A   4      18.125   8.716  -3.242  0.00  0.00    -0.273 OA
BRANCH   6  10
ATOM     10  CA  VAL A   4      18.117  10.161  -1.355  0.00  0.00    +0.149 C 
BRANCH  10  13
ATOM     11  C   PRO A   3      15.829  10.666  -0.727  0.00  0.00    +0.241 C 
ATOM     12  O   PRO A   3      16.174  11.685  -0.122  0.00  0.00    -0.273 OA
ATOM     13  N   VAL A   4      16.693   9.889  -1.367  0.00  0.00    -0.297 N 
ATOM     14  H   VAL A   4      16.340   9.063  -1.891  0.00  0.00    +0.150 HD
BRANCH  11  17
ATOM     15  C   THR A   2      13.953   9.255  -2.946  0.00  0.00    +0.246 C 
ATOM     16  N   PRO A   3      14.087   9.078  -1.643  0.00  0.00    -0.272 N 
ATOM     17  CA  PRO A   3      14.370  10.225  -0.753  0.00  0.00    +0.152 C 
ATOM     18  CB  PRO A   3      13.966   9.700   0.633  0.00  0.00    +0.031 C 
ATOM     19  CG  PRO A   3      13.935   8.227   0.541  0.00  0.00    +0.024 C 
ATOM     20  CD  PRO A   3      13.866   7.822  -0.907  0.00  0.00    +0.094 C 
ATOM     21  O   THR A   2      13.947  10.367  -3.438  0.00  0.00    -0.273 OA
BRANCH  15  22
ATOM     22  CA  THR A   2      13.679   8.040  -3.816  0.00  0.00    +0.176 C 
BRANCH  22  25
ATOM     23  C   PRO A   1      11.522   8.257  -4.902  0.00  0.00    +0.239 C 
ATOM     24  O   PRO A   1      10.992   7.555  -4.048  0.00  0.00    -0.274 OA
ATOM     25  N   THR A   2      12.820   8.539  -4.887  0.00  0.00    -0.295 N 
ATOM     26  H   THR A   2      13.229   9.121  -5.646  0.00  0.00    +0.150 HD
BRANCH  23  28
ATOM     27  N   PRO A   1      11.012   8.241  -7.323  0.00  0.00    -0.210 NA
ATOM     28  CA  PRO A   1      10.706   8.844  -6.036  0.00  0.00    +0.149 C 
ATOM     29  CB  PRO A   1       9.201   8.536  -5.848  0.00  0.00    +0.028 C 
ATOM     30  CG  PRO A   1       8.793   7.660  -7.011  0.00  0.00    +0.021 C 
ATOM     31  CD  PRO A   1      10.029   7.204  -7.688  0.00  0.00    +0.089 C 
ENDBRANCH  23  28
ENDBRANCH  22  25
BRANCH  22  32
ATOM     32  CB  THR A   2      14.943   7.382  -4.398  0.00  0.00    +0.137 C 
ATOM     33  CG2 THR A   2      15.696   8.345  -5.313  0.00  0.00    +0.034 C 
BRANCH  32  34
ATOM     34  OG1 THR A   2      15.863   7.081  -3.331  0.00  0.00    -0.382 OA
ATOM     35  HG1 THR A   2      16.111   7.918  -2.865  0.00  0.00    +0.210 HD
ENDBRANCH  32  34
ENDBRANCH  22  32
ENDBRANCH  15  22
ENDBRANCH  11  17
ENDBRANCH  10  13
BRANCH  10  36
ATOM     36  CB  VAL A   4      18.819   9.526  -0.079  0.00  0.00    +0.027 C 
ATOM     37  CG2 VAL A   4      20.285   9.994   0.089  0.00  0.00    +0.002 C 
ATOM     38  CG1 VAL A   4      18.720   8.030  -0.079  0.00  0.00    +0.002 C 
ENDBRANCH  10  36
ENDBRANCH   6  10
ENDBRANCH   5   7
BRANCH   5  39
ATOM     39  CB  ASN A   5      21.085  11.123  -5.035  0.00  0.00    +0.114 C 
BRANCH  39  40
ATOM     40  CG  ASN A   5      20.174  12.283  -5.484  0.00  0.00    +0.222 C 
ATOM     41  ND2 ASN A   5      20.499  13.499  -5.061  0.00  0.00    -0.329 N 
ATOM     42 HD21 ASN A   5      21.350  13.637  -4.479  0.00  0.00    +0.145 HD
ATOM     43 HD22 ASN A   5      19.903  14.313  -5.312  0.00  0.00    +0.145 HD
ATOM     44  OD1 ASN A   5      19.188  12.071  -6.168  0.00  0.00    -0.275 OA
ENDBRANCH  39  40
ENDBRANCH   5  39
ENDBRANCH   1   5
BRANCH   3  45
ATOM     45  CA  ILE A   6      21.883   6.460  -4.661  0.00  0.00    +0.149 C 
BRANCH  45  46
ATOM     46  C   ILE A   6      22.848   6.191  -5.805  0.00  0.00    +0.241 C 
ATOM     47  N   ILE A   7      24.127   6.062  -5.484  0.00  0.00    -0.297 N 
ATOM     48  H   ILE A   7      24.464   6.378  -4.552  0.00  0.00    +0.150 HD
ATOM     49  O   ILE A   6      22.445   6.109  -6.974  0.00  0.00    -0.273 OA
BRANCH  47  50
ATOM     50  CA  ILE A   7      25.079   5.466  -6.456  0.00  0.00    +0.149 C 
BRANCH  50  51
ATOM     51  C   ILE A   7      25.201   3.980  -6.141  0.00  0.00    +0.241 C 
ATOM     52  O   ILE A   7      25.672   3.604  -5.063  0.00  0.00    -0.273 OA
ATOM     53  N   GLY A   8      24.782   3.135  -7.083  0.00  0.00    -0.295 N 
ATOM     54  H   GLY A   8      24.458   3.513  -7.996  0.00  0.00    +0.150 HD
BRANCH  53  55
ATOM     55  CA  GLY A   8      24.767   1.691  -6.863  0.00  0.00    +0.176 C 
BRANCH  55  56
ATOM     56  C   GLY A   8      25.966   1.050  -7.527  0.00  0.00    +0.243 C 
ATOM     57  N   ARG A   9      25.983  -0.274  -7.481  0.00  0.00    -0.298 N 
ATOM     58  H   ARG A   9      25.139  -0.774  -7.136  0.00  0.00    +0.150 HD
ATOM     59  O   GLY A   8      26.828   1.728  -8.124  0.00  0.00    -0.273 OA
BRANCH  57  60
ATOM     60  CA  ARG A   9      27.149  -1.060  -7.899  0.00  0.00    +0.137 C 
BRANCH  60  61
ATOM     61  C   ARG A   9      27.465  -0.959  -9.378  0.00  0.00    +0.227 C 
ATOM     62  O   ARG A   9      28.628  -0.986  -9.723  0.00  0.00    -0.286 OA
ENDBRANCH  60  61
BRANCH  60  63
ATOM     63  CB  ARG A   9      26.994  -2.517  -7.478  0.00  0.00    +0.031 C 
BRANCH  63  64
ATOM     64  CG  ARG A   9      27.131  -2.740  -5.978  0.00  0.00    +0.045 C 
BRANCH  64  65
ATOM     65  CD  ARG A   9      27.182  -4.231  -5.604  0.00  0.00    +0.174 C 
BRANCH  65  66
ATOM     66  NE  ARG A   9      25.956  -4.940  -6.041  0.00  0.00    -0.265 N 
ATOM     67  HE  ARG A   9      25.105  -4.846  -5.451  0.00  0.00    +0.259 HD
ATOM     68  CZ  ARG A   9      25.871  -5.701  -7.156  0.00  0.00    +0.342 C 
ATOM     69  NH2 ARG A   9      24.727  -6.291  -7.461  0.00  0.00    -0.292 N 
ATOM     70 HH21 ARG A   9      23.898  -6.169  -6.845  0.00  0.00    +0.255 HD
ATOM     71 HH22 ARG A   9      24.656  -6.877  -8.317  0.00  0.00    +0.255 HD
ATOM     72  NH1 ARG A   9      26.916  -5.871  -7.978  0.00  0.00    -0.292 N 
ATOM     73 HH11 ARG A   9      27.824  -5.411  -7.766  0.00  0.00    +0.255 HD
ATOM     74 HH12 ARG A   9      26.818  -6.463  -8.828  0.00  0.00    +0.255 HD
ENDBRANCH  65  66
ENDBRANCH  64  65
ENDBRANCH  63  64
ENDBRANCH  60  63
ENDBRANCH  57  60
ENDBRANCH  55  56
ENDBRANCH  53  55
ENDBRANCH  50  51
BRANCH  50  75
ATOM     75  CB  ILE A   7      26.454   6.122  -6.423  0.00  0.00    +0.027 C 
ATOM     76  CG2 ILE A   7      27.353   5.579  -7.609  0.00  0.00    +0.002 C 
BRANCH  75  77
ATOM     77  CG1 ILE A   7      26.324   7.661  -6.462  0.00  0.00    +0.002 C 
ATOM     78  CD1 ILE A   7      25.622   8.226  -7.730  0.00  0.00    +0.000 C 
ENDBRANCH  75  77
ENDBRANCH  50  75
ENDBRANCH  47  50
ENDBRANCH  45  46
BRANCH  45  79
ATOM     79  CB  ILE A   6      20.899   5.228  -4.511  0.00  0.00    +0.027 C 
ATOM     80  CG2 ILE A   6      21.665   3.912  -4.380  0.00  0.00    +0.002 C 
BRANCH  79  81
ATOM     81  CG1 ILE A   6      19.947   5.400  -3.326  0.00  0.00    +0.002 C 
ATOM     82  CD1 ILE A   6      20.648   5.579  -2.019  0.00  0.00    +0.000 C 
ENDBRANCH  79  81
ENDBRANCH  45  79
ENDBRANCH   3  45
TORSDOF 29
REMARK  Name = ../refined-set-2016/2p3b/2p3b_pocket.pdb
REMARK  227 active torsions:
REMARK  status: ('A' for Active; 'I' for Inactive)
REMARK    1  A    between atoms: _1  and  _3
REMARK    2  A    between atoms: _3  and  _4
REMARK    3  A    between atoms: _3  and  _6
REMARK    4  A    between atoms: _6  and  _7
REMARK    5  A    between atoms: _7  and  _8
REMARK    6  A    between atoms: _8  and  _9
REMARK    7  A    between atoms: _18  and  _20
REMARK    8  A    between atoms: _20  and  _21
REMARK    9  A    between atoms: _20  and  _23
REMARK   10  A    between atoms: _23  and  _24
REMARK   11  A    between atoms: _27  and  _29
REMARK   12  A    between atoms: _29  and  _30
REMARK   13  A    between atoms: _29  and  _32
REMARK   14  A    between atoms: _32  and  _33
REMARK   15  A    between atoms: _36  and  _38
REMARK   16  A    between atoms: _38  and  _39
REMARK   17  A    between atoms: _38  and  _41
REMARK   18  A    between atoms: _41  and  _42
REMARK   19  A    between atoms: _45  and  _47
REMARK   20  A    between atoms: _47  and  _48
REMARK   21  A    between atoms: _47  and  _50
REMARK   22  A    between atoms: _50  and  _51
REMARK   23  A    between atoms: _54  and  _56
REMARK   24  A    between atoms: _56  and  _57
REMARK   25  A    between atoms: _59  and  _61
REMARK   26  A    between atoms: _61  and  _62
REMARK   27  A    between atoms: _65  and  _67
REMARK   28  A    between atoms: _67  and  _68
REMARK   29  A    between atoms: _67  and  _70
REMARK   30  A    between atoms: _70  and  _71
REMARK   31  A    between atoms: _74  and  _76
REMARK   32  A    between atoms: _76  and  _77
REMARK   33  A    between atoms: _76  and  _79
REMARK   34  A    between atoms: _79  and  _80
REMARK   35  A    between atoms: _83  and  _85
REMARK   36  A    between atoms: _85  and  _86
REMARK   37  A    between atoms: _85  and  _88
REMARK   38  A    between atoms: _88  and  _89
REMARK   39  A    between atoms: _92  and  _94
REMARK   40  A    between atoms: _94  and  _95
REMARK   41  A    between atoms: _94  and  _97
REMARK   42  A    between atoms: _100  and  _102
REMARK   43  A    between atoms: _102  and  _103
REMARK   44  A    between atoms: _102  and  _105
REMARK   45  A    between atoms: _105  and  _106
REMARK   46  A    between atoms: _106  and  _107
REMARK   47  A    between atoms: _107  and  _108
REMARK   48  A    between atoms: _108  and  _109
REMARK   49  A    between atoms: _113  and  _115
REMARK   50  A    between atoms: _115  and  _116
REMARK   51  A    between atoms: _115  and  _118
REMARK   52  A    between atoms: _118  and  _119
REMARK   53  A    between atoms: _119  and  _120
REMARK   54  A    between atoms: _122  and  _124
REMARK   55  A    between atoms: _124  and  _125
REMARK   56  A    between atoms: _124  and  _127
REMARK   57  A    between atoms: _127  and  _128
REMARK   58  A    between atoms: _131  and  _133
REMARK   59  A    between atoms: _133  and  _134
REMARK   60  A    between atoms: _136  and  _138
REMARK   61  A    between atoms: _138  and  _139
REMARK   62  A    between atoms: _141  and  _143
REMARK   63  A    between atoms: _143  and  _144
REMARK   64  A    between atoms: _143  and  _146
REMARK   65  A    between atoms: _146  and  _147
REMARK   66  A    between atoms: _150  and  _152
REMARK   67  A    between atoms: _152  and  _153
REMARK   68  A    between atoms: _155  and  _157
REMARK   69  A    between atoms: _157  and  _158
REMARK   70  A    between atoms: _160  and  _162
REMARK   71  A    between atoms: _162  and  _163
REMARK   72  A    between atoms: _162  and  _165
REMARK   73  A    between atoms: _165  and  _166
REMARK   74  A    between atoms: _172  and  _174
REMARK   75  A    between atoms: _174  and  _175
REMARK   76  A    between atoms: _174  and  _177
REMARK   77  A    between atoms: _177  and  _178
REMARK   78  A    between atoms: _181  and  _183
REMARK   79  A    between atoms: _183  and  _184
REMARK   80  A    between atoms: _183  and  _186
REMARK   81  A    between atoms: _186  and  _187
REMARK   82  A    between atoms: _191  and  _192
REMARK   83  A    between atoms: _197  and  _199
REMARK   84  A    between atoms: _199  and  _200
REMARK   85  A    between atoms: _199  and  _202
REMARK   86  A    between atoms: _202  and  _203
REMARK   87  A    between atoms: _207  and  _208
REMARK   88  A    between atoms: _213  and  _215
REMARK   89  A    between atoms: _215  and  _216
REMARK   90  A    between atoms: _215  and  _218
REMARK   91  A    between atoms: _221  and  _223
REMARK   92  A    between atoms: _223  and  _224
REMARK   93  A    between atoms: _223  and  _226
REMARK   94  A    between atoms: _226  and  _227
REMARK   95  A    between atoms: _232  and  _234
REMARK   96  A    between atoms: _234  and  _235
REMARK   97  A    between atoms: _234  and  _237
REMARK   98  A    between atoms: _237  and  _238
REMARK   99  A    between atoms: _241  and  _243
REMARK  100  A    between atoms: _243  and  _244
REMARK  101  A    between atoms: _243  and  _246
REMARK  102  A    between atoms: _246  and  _247
REMARK  103  A    between atoms: _250  and  _252
REMARK  104  A    between atoms: _252  and  _253
REMARK  105  A    between atoms: _255  and  _257
REMARK  106  A    between atoms: _257  and  _258
REMARK  107  A    between atoms: _257  and  _260
REMARK  108  A    between atoms: _260  and  _261
REMARK  109  A    between atoms: _261  and  _262
REMARK  110  A    between atoms: _262  and  _263
REMARK  111  A    between atoms: _272  and  _274
REMARK  112  A    between atoms: _274  and  _275
REMARK  113  A    between atoms: _274  and  _277
REMARK  114  A    between atoms: _277  and  _278
REMARK  115  A    between atoms: _283  and  _285
REMARK  116  A    between atoms: _285  and  _286
REMARK  117  A    between atoms: _285  and  _288
REMARK  118  A    between atoms: _288  and  _289
REMARK  119  A    between atoms: _289  and  _290
REMARK  120  A    between atoms: _290  and  _291
REMARK  121  A    between atoms: _300  and  _302
REMARK  122  A    between atoms: _302  and  _303
REMARK  123  A    between atoms: _302  and  _305
REMARK  124  A    between atoms: _305  and  _306
REMARK  125  A    between atoms: _309  and  _311
REMARK  126  A    between atoms: _311  and  _312
REMARK  127  A    between atoms: _311  and  _314
REMARK  128  A    between atoms: _314  and  _315
REMARK  129  A    between atoms: _318  and  _320
REMARK  130  A    between atoms: _320  and  _321
REMARK  131  A    between atoms: _320  and  _323
REMARK  132  A    between atoms: _323  and  _324
REMARK  133  A    between atoms: _327  and  _329
REMARK  134  A    between atoms: _329  and  _330
REMARK  135  A    between atoms: _329  and  _332
REMARK  136  A    between atoms: _332  and  _333
REMARK  137  A    between atoms: _336  and  _338
REMARK  138  A    between atoms: _338  and  _339
REMARK  139  A    between atoms: _341  and  _343
REMARK  140  A    between atoms: _343  and  _344
REMARK  141  A    between atoms: _347  and  _349
REMARK  142  A    between atoms: _349  and  _350
REMARK  143  A    between atoms: _349  and  _352
REMARK  144  A    between atoms: _352  and  _353
REMARK  145  A    between atoms: _356  and  _358
REMARK  146  A    between atoms: _358  and  _359
REMARK  147  A    between atoms: _358  and  _361
REMARK  148  A    between atoms: _361  and  _362
REMARK  149  A    between atoms: _365  and  _367
REMARK  150  A    between atoms: _367  and  _368
REMARK  151  A    between atoms: _367  and  _370
REMARK  152  A    between atoms: _370  and  _371
REMARK  153  A    between atoms: _374  and  _376
REMARK  154  A    between atoms: _376  and  _377
REMARK  155  A    between atoms: _376  and  _379
REMARK  156  A    between atoms: _382  and  _384
REMARK  157  A    between atoms: _384  and  _385
REMARK  158  A    between atoms: _384  and  _387
REMARK  159  A    between atoms: _387  and  _388
REMARK  160  A    between atoms: _388  and  _389
REMARK  161  A    between atoms: _389  and  _390
REMARK  162  A    between atoms: _390  and  _391
REMARK  163  A    between atoms: _395  and  _397
REMARK  164  A    between atoms: _397  and  _398
REMARK  165  A    between atoms: _397  and  _400
REMARK  166  A    between atoms: _400  and  _401
REMARK  167  A    between atoms: _401  and  _402
REMARK  168  A    between atoms: _404  and  _406
REMARK  169  A    between atoms: _406  and  _407
REMARK  170  A    between atoms: _406  and  _409
REMARK  171  A    between atoms: _409  and  _410
REMARK  172  A    between atoms: _413  and  _415
REMARK  173  A    between atoms: _415  and  _416
REMARK  174  A    between atoms: _418  and  _420
REMARK  175  A    between atoms: _420  and  _421
REMARK  176  A    between atoms: _423  and  _425
REMARK  177  A    between atoms: _425  and  _426
REMARK  178  A    between atoms: _425  and  _428
REMARK  179  A    between atoms: _428  and  _429
REMARK  180  A    between atoms: _432  and  _434
REMARK  181  A    between atoms: _434  and  _435
REMARK  182  A    between atoms: _437  and  _439
REMARK  183  A    between atoms: _439  and  _440
REMARK  184  A    between atoms: _442  and  _444
REMARK  185  A    between atoms: _444  and  _445
REMARK  186  A    between atoms: _444  and  _447
REMARK  187  A    between atoms: _447  and  _448
REMARK  188  A    between atoms: _454  and  _456
REMARK  189  A    between atoms: _456  and  _457
REMARK  190  A    between atoms: _456  and  _459
REMARK  191  A    between atoms: _459  and  _460
REMARK  192  A    between atoms: _463  and  _465
REMARK  193  A    between atoms: _465  and  _466
REMARK  194  A    between atoms: _465  and  _468
REMARK  195  A    between atoms: _471  and  _473
REMARK  196  A    between atoms: _473  and  _474
REMARK  197  A    between atoms: _473  and  _476
REMARK  198  A    between atoms: _476  and  _477
REMARK  199  A    between atoms: _481  and  _482
REMARK  200  A    between atoms: _487  and  _489
REMARK  201  A    between atoms: _489  and  _490
REMARK  202  A    between atoms: _489  and  _492
REMARK  203  A    between atoms: _492  and  _493
REMARK  204  A    between atoms: _497  and  _498
REMARK  205  A    between atoms: _503  and  _505
REMARK  206  A    between atoms: _505  and  _506
REMARK  207  A    between atoms: _505  and  _508
REMARK  208  A    between atoms: _511  and  _513
REMARK  209  A    between atoms: _513  and  _514
REMARK  210  A    between atoms: _513  and  _516
REMARK  211  A    between atoms: _516  and  _517
REMARK  212  A    between atoms: _522  and  _524
REMARK  213  A    between atoms: _524  and  _525
REMARK  214  A    between atoms: _524  and  _527
REMARK  215  A    between atoms: _527  and  _528
REMARK  216  A    between atoms: _531  and  _533
REMARK  217  A    between atoms: _533  and  _534
REMARK  218  A    between atoms: _533  and  _536
REMARK  219  A    between atoms: _536  and  _537
REMARK  220  A    between atoms: _540  and  _542
REMARK  221  A    between atoms: _542  and  _543
REMARK  222  A    between atoms: _545  and  _547
REMARK  223  A    between atoms: _547  and  _548
REMARK  224  A    between atoms: _547  and  _550
REMARK  225  A    between atoms: _550  and  _551
REMARK  226  A    between atoms: _551  and  _552
REMARK  227  A    between atoms: _552  and  _553
REMARK                            x       y       z     vdW  Elec       q    Type
REMARK                         _______ _______ _______ _____ _____    ______ ____
ROOT
ATOM      1  O   HOH     1      15.332  -0.041   0.640  0.00  0.00    +0.000 OA
ENDROOT
TORSDOF 0
REMARK  Name = ../refined-set-2016/2p3b/2p3b_pocket.pdb
REMARK  227 active torsions:
REMARK  status: ('A' for Active; 'I' for Inactive)
REMARK    1  A    between atoms: _1  and  _3
REMARK    2  A    between atoms: _3  and  _4
REMARK    3  A    between atoms: _3  and  _6
REMARK    4  A    between atoms: _6  and  _7
REMARK    5  A    between atoms: _7  and  _8
REMARK    6  A    between atoms: _8  and  _9
REMARK    7  A    between atoms: _18  and  _20
REMARK    8  A    between atoms: _20  and  _21
REMARK    9  A    between atoms: _20  and  _23
REMARK   10  A    between atoms: _23  and  _24
REMARK   11  A    between atoms: _27  and  _29
REMARK   12  A    between atoms: _29  and  _30
REMARK   13  A    between atoms: _29  and  _32
REMARK   14  A    between atoms: _32  and  _33
REMARK   15  A    between atoms: _36  and  _38
REMARK   16  A    between atoms: _38  and  _39
REMARK   17  A    between atoms: _38  and  _41
REMARK   18  A    between atoms: _41  and  _42
REMARK   19  A    between atoms: _45  and  _47
REMARK   20  A    between atoms: _47  and  _48
REMARK   21  A    between atoms: _47  and  _50
REMARK   22  A    between atoms: _50  and  _51
REMARK   23  A    between atoms: _54  and  _56
REMARK   24  A    between atoms: _56  and  _57
REMARK   25  A    between atoms: _59  and  _61
REMARK   26  A    between atoms: _61  and  _62
REMARK   27  A    between atoms: _65  and  _67
REMARK   28  A    between atoms: _67  and  _68
REMARK   29  A    between atoms: _67  and  _70
REMARK   30  A    between atoms: _70  and  _71
REMARK   31  A    between atoms: _74  and  _76
REMARK   32  A    between atoms: _76  and  _77
REMARK   33  A    between atoms: _76  and  _79
REMARK   34  A    between atoms: _79  and  _80
REMARK   35  A    between atoms: _83  and  _85
REMARK   36  A    between atoms: _85  and  _86
REMARK   37  A    between atoms: _85  and  _88
REMARK   38  A    between atoms: _88  and  _89
REMARK   39  A    between atoms: _92  and  _94
REMARK   40  A    between atoms: _94  and  _95
REMARK   41  A    between atoms: _94  and  _97
REMARK   42  A    between atoms: _100  and  _102
REMARK   43  A    between atoms: _102  and  _103
REMARK   44  A    between atoms: _102  and  _105
REMARK   45  A    between atoms: _105  and  _106
REMARK   46  A    between atoms: _106  and  _107
REMARK   47  A    between atoms: _107  and  _108
REMARK   48  A    between atoms: _108  and  _109
REMARK   49  A    between atoms: _113  and  _115
REMARK   50  A    between atoms: _115  and  _116
REMARK   51  A    between atoms: _115  and  _118
REMARK   52  A    between atoms: _118  and  _119
REMARK   53  A    between atoms: _119  and  _120
REMARK   54  A    between atoms: _122  and  _124
REMARK   55  A    between atoms: _124  and  _125
REMARK   56  A    between atoms: _124  and  _127
REMARK   57  A    between atoms: _127  and  _128
REMARK   58  A    between atoms: _131  and  _133
REMARK   59  A    between atoms: _133  and  _134
REMARK   60  A    between atoms: _136  and  _138
REMARK   61  A    between atoms: _138  and  _139
REMARK   62  A    between atoms: _141  and  _143
REMARK   63  A    between atoms: _143  and  _144
REMARK   64  A    between atoms: _143  and  _146
REMARK   65  A    between atoms: _146  and  _147
REMARK   66  A    between atoms: _150  and  _152
REMARK   67  A    between atoms: _152  and  _153
REMARK   68  A    between atoms: _155  and  _157
REMARK   69  A    between atoms: _157  and  _158
REMARK   70  A    between atoms: _160  and  _162
REMARK   71  A    between atoms: _162  and  _163
REMARK   72  A    between atoms: _162  and  _165
REMARK   73  A    between atoms: _165  and  _166
REMARK   74  A    between atoms: _172  and  _174
REMARK   75  A    between atoms: _174  and  _175
REMARK   76  A    between atoms: _174  and  _177
REMARK   77  A    between atoms: _177  and  _178
REMARK   78  A    between atoms: _181  and  _183
REMARK   79  A    between atoms: _183  and  _184
REMARK   80  A    between atoms: _183  and  _186
REMARK   81  A    between atoms: _186  and  _187
REMARK   82  A    between atoms: _191  and  _192
REMARK   83  A    between atoms: _197  and  _199
REMARK   84  A    between atoms: _199  and  _200
REMARK   85  A    between atoms: _199  and  _202
REMARK   86  A    between atoms: _202  and  _203
REMARK   87  A    between atoms: _207  and  _208
REMARK   88  A    between atoms: _213  and  _215
REMARK   89  A    between atoms: _215  and  _216
REMARK   90  A    between atoms: _215  and  _218
REMARK   91  A    between atoms: _221  and  _223
REMARK   92  A    between atoms: _223  and  _224
REMARK   93  A    between atoms: _223  and  _226
REMARK   94  A    between atoms: _226  and  _227
REMARK   95  A    between atoms: _232  and  _234
REMARK   96  A    between atoms: _234  and  _235
REMARK   97  A    between atoms: _234  and  _237
REMARK   98  A    between atoms: _237  and  _238
REMARK   99  A    between atoms: _241  and  _243
REMARK  100  A    between atoms: _243  and  _244
REMARK  101  A    between atoms: _243  and  _246
REMARK  102  A    between atoms: _246  and  _247
REMARK  103  A    between atoms: _250  and  _252
REMARK  104  A    between atoms: _252  and  _253
REMARK  105  A    between atoms: _255  and  _257
REMARK  106  A    between atoms: _257  and  _258
REMARK  107  A    between atoms: _257  and  _260
REMARK  108  A    between atoms: _260  and  _261
REMARK  109  A    between atoms: _261  and  _262
REMARK  110  A    between atoms: _262  and  _263
REMARK  111  A    between atoms: _272  and  _274
REMARK  112  A    between atoms: _274  and  _275
REMARK  113  A    between atoms: _274  and  _277
REMARK  114  A    between atoms: _277  and  _278
REMARK  115  A    between atoms: _283  and  _285
REMARK  116  A    between atoms: _285  and  _286
REMARK  117  A    between atoms: _285  and  _288
REMARK  118  A    between atoms: _288  and  _289
REMARK  119  A    between atoms: _289  and  _290
REMARK  120  A    between atoms: _290  and  _291
REMARK  121  A    between atoms: _300  and  _302
REMARK  122  A    between atoms: _302  and  _303
REMARK  123  A    between atoms: _302  and  _305
REMARK  124  A    between atoms: _305  and  _306
REMARK  125  A    between atoms: _309  and  _311
REMARK  126  A    between atoms: _311  and  _312
REMARK  127  A    between atoms: _311  and  _314
REMARK  128  A    between atoms: _314  and  _315
REMARK  129  A    between atoms: _318  and  _320
REMARK  130  A    between atoms: _320  and  _321
REMARK  131  A    between atoms: _320  and  _323
REMARK  132  A    between atoms: _323  and  _324
REMARK  133  A    between atoms: _327  and  _329
REMARK  134  A    between atoms: _329  and  _330
REMARK  135  A    between atoms: _329  and  _332
REMARK  136  A    between atoms: _332  and  _333
REMARK  137  A    between atoms: _336  and  _338
REMARK  138  A    between atoms: _338  and  _339
REMARK  139  A    between atoms: _341  and  _343
REMARK  140  A    between atoms: _343  and  _344
REMARK  141  A    between atoms: _347  and  _349
REMARK  142  A    between atoms: _349  and  _350
REMARK  143  A    between atoms: _349  and  _352
REMARK  144  A    between atoms: _352  and  _353
REMARK  145  A    between atoms: _356  and  _358
REMARK  146  A    between atoms: _358  and  _359
REMARK  147  A    between atoms: _358  and  _361
REMARK  148  A    between atoms: _361  and  _362
REMARK  149  A    between atoms: _365  and  _367
REMARK  150  A    between atoms: _367  and  _368
REMARK  151  A    between atoms: _367  and  _370
REMARK  152  A    between atoms: _370  and  _371
REMARK  153  A    between atoms: _374  and  _376
REMARK  154  A    between atoms: _376  and  _377
REMARK  155  A    between atoms: _376  and  _379
REMARK  156  A    between atoms: _382  and  _384
REMARK  157  A    between atoms: _384  and  _385
REMARK  158  A    between atoms: _384  and  _387
REMARK  159  A    between atoms: _387  and  _388
REMARK  160  A    between atoms: _388  and  _389
REMARK  161  A    between atoms: _389  and  _390
REMARK  162  A    between atoms: _390  and  _391
REMARK  163  A    between atoms: _395  and  _397
REMARK  164  A    between atoms: _397  and  _398
REMARK  165  A    between atoms: _397  and  _400
REMARK  166  A    between atoms: _400  and  _401
REMARK  167  A    between atoms: _401  and  _402
REMARK  168  A    between atoms: _404  and  _406
REMARK  169  A    between atoms: _406  and  _407
REMARK  170  A    between atoms: _406  and  _409
REMARK  171  A    between atoms: _409  and  _410
REMARK  172  A    between atoms: _413  and  _415
REMARK  173  A    between atoms: _415  and  _416
REMARK  174  A    between atoms: _418  and  _420
REMARK  175  A    between atoms: _420  and  _421
REMARK  176  A    between atoms: _423  and  _425
REMARK  177  A    between atoms: _425  and  _426
REMARK  178  A    between atoms: _425  and  _428
REMARK  179  A    between atoms: _428  and  _429
REMARK  180  A    between atoms: _432  and  _434
REMARK  181  A    between atoms: _434  and  _435
REMARK  182  A    between atoms: _437  and  _439
REMARK  183  A    between atoms: _439  and  _440
REMARK  184  A    between atoms: _442  and  _444
REMARK  185  A    between atoms: _444  and  _445
REMARK  186  A    between atoms: _444  and  _447
REMARK  187  A    between atoms: _447  and  _448
REMARK  188  A    between atoms: _454  and  _456
REMARK  189  A    between atoms: _456  and  _457
REMARK  190  A    between atoms: _456  and  _459
REMARK  191  A    between atoms: _459  and  _460
REMARK  192  A    between atoms: _463  and  _465
REMARK  193  A    between atoms: _465  and  _466
REMARK  194  A    between atoms: _465  and  _468
REMARK  195  A    between atoms: _471  and  _473
REMARK  196  A    between atoms: _473  and  _474
REMARK  197  A    between atoms: _473  and  _476
REMARK  198  A    between atoms: _476  and  _477
REMARK  199  A    between atoms: _481  and  _482
REMARK  200  A    between atoms: _487  and  _489
REMARK  201  A    between atoms: _489  and  _490
REMARK  202  A    between atoms: _489  and  _492
REMARK  203  A    between atoms: _492  and  _493
REMARK  204  A    between atoms: _497  and  _498
REMARK  205  A    between atoms: _503  and  _505
REMARK  206  A    between atoms: _505  and  _506
REMARK  207  A    between atoms: _505  and  _508
REMARK  208  A    between atoms: _511  and  _513
REMARK  209  A    between atoms: _513  and  _514
REMARK  210  A    between atoms: _513  and  _516
REMARK  211  A    between atoms: _516  and  _517
REMARK  212  A    between atoms: _522  and  _524
REMARK  213  A    between atoms: _524  and  _525
REMARK  214  A    between atoms: _524  and  _527
REMARK  215  A    between atoms: _527  and  _528
REMARK  216  A    between atoms: _531  and  _533
REMARK  217  A    between atoms: _533  and  _534
REMARK  218  A    between atoms: _533  and  _536
REMARK  219  A    between atoms: _536  and  _537
REMARK  220  A    between atoms: _540  and  _542
REMARK  221  A    between atoms: _542  and  _543
REMARK  222  A    between atoms: _545  and  _547
REMARK  223  A    between atoms: _547  and  _548
REMARK  224  A    between atoms: _547  and  _550
REMARK  225  A    between atoms: _550  and  _551
REMARK  226  A    between atoms: _551  and  _552
REMARK  227  A    between atoms: _552  and  _553
REMARK                            x       y       z     vdW  Elec       q    Type
REMARK                         _______ _______ _______ _____ _____    ______ ____
ROOT
ATOM      1  O   HOH     1      24.723   4.969   5.156  0.00  0.00    +0.000 OA
ENDROOT
TORSDOF 0
REMARK  Name = ../refined-set-2016/2p3b/2p3b_pocket.pdb
REMARK  227 active torsions:
REMARK  status: ('A' for Active; 'I' for Inactive)
REMARK    1  A    between atoms: _1  and  _3
REMARK    2  A    between atoms: _3  and  _4
REMARK    3  A    between atoms: _3  and  _6
REMARK    4  A    between atoms: _6  and  _7
REMARK    5  A    between atoms: _7  and  _8
REMARK    6  A    between atoms: _8  and  _9
REMARK    7  A    between atoms: _18  and  _20
REMARK    8  A    between atoms: _20  and  _21
REMARK    9  A    between atoms: _20  and  _23
REMARK   10  A    between atoms: _23  and  _24
REMARK   11  A    between atoms: _27  and  _29
REMARK   12  A    between atoms: _29  and  _30
REMARK   13  A    between atoms: _29  and  _32
REMARK   14  A    between atoms: _32  and  _33
REMARK   15  A    between atoms: _36  and  _38
REMARK   16  A    between atoms: _38  and  _39
REMARK   17  A    between atoms: _38  and  _41
REMARK   18  A    between atoms: _41  and  _42
REMARK   19  A    between atoms: _45  and  _47
REMARK   20  A    between atoms: _47  and  _48
REMARK   21  A    between atoms: _47  and  _50
REMARK   22  A    between atoms: _50  and  _51
REMARK   23  A    between atoms: _54  and  _56
REMARK   24  A    between atoms: _56  and  _57
REMARK   25  A    between atoms: _59  and  _61
REMARK   26  A    between atoms: _61  and  _62
REMARK   27  A    between atoms: _65  and  _67
REMARK   28  A    between atoms: _67  and  _68
REMARK   29  A    between atoms: _67  and  _70
REMARK   30  A    between atoms: _70  and  _71
REMARK   31  A    between atoms: _74  and  _76
REMARK   32  A    between atoms: _76  and  _77
REMARK   33  A    between atoms: _76  and  _79
REMARK   34  A    between atoms: _79  and  _80
REMARK   35  A    between atoms: _83  and  _85
REMARK   36  A    between atoms: _85  and  _86
REMARK   37  A    between atoms: _85  and  _88
REMARK   38  A    between atoms: _88  and  _89
REMARK   39  A    between atoms: _92  and  _94
REMARK   40  A    between atoms: _94  and  _95
REMARK   41  A    between atoms: _94  and  _97
REMARK   42  A    between atoms: _100  and  _102
REMARK   43  A    between atoms: _102  and  _103
REMARK   44  A    between atoms: _102  and  _105
REMARK   45  A    between atoms: _105  and  _106
REMARK   46  A    between atoms: _106  and  _107
REMARK   47  A    between atoms: _107  and  _108
REMARK   48  A    between atoms: _108  and  _109
REMARK   49  A    between atoms: _113  and  _115
REMARK   50  A    between atoms: _115  and  _116
REMARK   51  A    between atoms: _115  and  _118
REMARK   52  A    between atoms: _118  and  _119
REMARK   53  A    between atoms: _119  and  _120
REMARK   54  A    between atoms: _122  and  _124
REMARK   55  A    between atoms: _124  and  _125
REMARK   56  A    between atoms: _124  and  _127
REMARK   57  A    between atoms: _127  and  _128
REMARK   58  A    between atoms: _131  and  _133
REMARK   59  A    between atoms: _133  and  _134
REMARK   60  A    between atoms: _136  and  _138
REMARK   61  A    between atoms: _138  and  _139
REMARK   62  A    between atoms: _141  and  _143
REMARK   63  A    between atoms: _143  and  _144
REMARK   64  A    between atoms: _143  and  _146
REMARK   65  A    between atoms: _146  and  _147
REMARK   66  A    between atoms: _150  and  _152
REMARK   67  A    between atoms: _152  and  _153
REMARK   68  A    between atoms: _155  and  _157
REMARK   69  A    between atoms: _157  and  _158
REMARK   70  A    between atoms: _160  and  _162
REMARK   71  A    between atoms: _162  and  _163
REMARK   72  A    between atoms: _162  and  _165
REMARK   73  A    between atoms: _165  and  _166
REMARK   74  A    between atoms: _172  and  _174
REMARK   75  A    between atoms: _174  and  _175
REMARK   76  A    between atoms: _174  and  _177
REMARK   77  A    between atoms: _177  and  _178
REMARK   78  A    between atoms: _181  and  _183
REMARK   79  A    between atoms: _183  and  _184
REMARK   80  A    between atoms: _183  and  _186
REMARK   81  A    between atoms: _186  and  _187
REMARK   82  A    between atoms: _191  and  _192
REMARK   83  A    between atoms: _197  and  _199
REMARK   84  A    between atoms: _199  and  _200
REMARK   85  A    between atoms: _199  and  _202
REMARK   86  A    between atoms: _202  and  _203
REMARK   87  A    between atoms: _207  and  _208
REMARK   88  A    between atoms: _213  and  _215
REMARK   89  A    between atoms: _215  and  _216
REMARK   90  A    between atoms: _215  and  _218
REMARK   91  A    between atoms: _221  and  _223
REMARK   92  A    between atoms: _223  and  _224
REMARK   93  A    between atoms: _223  and  _226
REMARK   94  A    between atoms: _226  and  _227
REMARK   95  A    between atoms: _232  and  _234
REMARK   96  A    between atoms: _234  and  _235
REMARK   97  A    between atoms: _234  and  _237
REMARK   98  A    between atoms: _237  and  _238
REMARK   99  A    between atoms: _241  and  _243
REMARK  100  A    between atoms: _243  and  _244
REMARK  101  A    between atoms: _243  and  _246
REMARK  102  A    between atoms: _246  and  _247
REMARK  103  A    between atoms: _250  and  _252
REMARK  104  A    between atoms: _252  and  _253
REMARK  105  A    between atoms: _255  and  _257
REMARK  106  A    between atoms: _257  and  _258
REMARK  107  A    between atoms: _257  and  _260
REMARK  108  A    between atoms: _260  and  _261
REMARK  109  A    between atoms: _261  and  _262
REMARK  110  A    between atoms: _262  and  _263
REMARK  111  A    between atoms: _272  and  _274
REMARK  112  A    between atoms: _274  and  _275
REMARK  113  A    between atoms: _274  and  _277
REMARK  114  A    between atoms: _277  and  _278
REMARK  115  A    between atoms: _283  and  _285
REMARK  116  A    between atoms: _285  and  _286
REMARK  117  A    between atoms: _285  and  _288
REMARK  118  A    between atoms: _288  and  _289
REMARK  119  A    between atoms: _289  and  _290
REMARK  120  A    between atoms: _290  and  _291
REMARK  121  A    between atoms: _300  and  _302
REMARK  122  A    between atoms: _302  and  _303
REMARK  123  A    between atoms: _302  and  _305
REMARK  124  A    between atoms: _305  and  _306
REMARK  125  A    between atoms: _309  and  _311
REMARK  126  A    between atoms: _311  and  _312
REMARK  127  A    between atoms: _311  and  _314
REMARK  128  A    between atoms: _314  and  _315
REMARK  129  A    between atoms: _318  and  _320
REMARK  130  A    between atoms: _320  and  _321
REMARK  131  A    between atoms: _320  and  _323
REMARK  132  A    between atoms: _323  and  _324
REMARK  133  A    between atoms: _327  and  _329
REMARK  134  A    between atoms: _329  and  _330
REMARK  135  A    between atoms: _329  and  _332
REMARK  136  A    between atoms: _332  and  _333
REMARK  137  A    between atoms: _336  and  _338
REMARK  138  A    between atoms: _338  and  _339
REMARK  139  A    between atoms: _341  and  _343
REMARK  140  A    between atoms: _343  and  _344
REMARK  141  A    between atoms: _347  and  _349
REMARK  142  A    between atoms: _349  and  _350
REMARK  143  A    between atoms: _349  and  _352
REMARK  144  A    between atoms: _352  and  _353
REMARK  145  A    between atoms: _356  and  _358
REMARK  146  A    between atoms: _358  and  _359
REMARK  147  A    between atoms: _358  and  _361
REMARK  148  A    between atoms: _361  and  _362
REMARK  149  A    between atoms: _365  and  _367
REMARK  150  A    between atoms: _367  and  _368
REMARK  151  A    between atoms: _367  and  _370
REMARK  152  A    between atoms: _370  and  _371
REMARK  153  A    between atoms: _374  and  _376
REMARK  154  A    between atoms: _376  and  _377
REMARK  155  A    between atoms: _376  and  _379
REMARK  156  A    between atoms: _382  and  _384
REMARK  157  A    between atoms: _384  and  _385
REMARK  158  A    between atoms: _384  and  _387
REMARK  159  A    between atoms: _387  and  _388
REMARK  160  A    between atoms: _388  and  _389
REMARK  161  A    between atoms: _389  and  _390
REMARK  162  A    between atoms: _390  and  _391
REMARK  163  A    between atoms: _395  and  _397
REMARK  164  A    between atoms: _397  and  _398
REMARK  165  A    between atoms: _397  and  _400
REMARK  166  A    between atoms: _400  and  _401
REMARK  167  A    between atoms: _401  and  _402
REMARK  168  A    between atoms: _404  and  _406
REMARK  169  A    between atoms: _406  and  _407
REMARK  170  A    between atoms: _406  and  _409
REMARK  171  A    between atoms: _409  and  _410
REMARK  172  A    between atoms: _413  and  _415
REMARK  173  A    between atoms: _415  and  _416
REMARK  174  A    between atoms: _418  and  _420
REMARK  175  A    between atoms: _420  and  _421
REMARK  176  A    between atoms: _423  and  _425
REMARK  177  A    between atoms: _425  and  _426
REMARK  178  A    between atoms: _425  and  _428
REMARK  179  A    between atoms: _428  and  _429
REMARK  180  A    between atoms: _432  and  _434
REMARK  181  A    between atoms: _434  and  _435
REMARK  182  A    between atoms: _437  and  _439
REMARK  183  A    between atoms: _439  and  _440
REMARK  184  A    between atoms: _442  and  _444
REMARK  185  A    between atoms: _444  and  _445
REMARK  186  A    between atoms: _444  and  _447
REMARK  187  A    between atoms: _447  and  _448
REMARK  188  A    between atoms: _454  and  _456
REMARK  189  A    between atoms: _456  and  _457
REMARK  190  A    between atoms: _456  and  _459
REMARK  191  A    between atoms: _459  and  _460
REMARK  192  A    between atoms: _463  and  _465
REMARK  193  A    between atoms: _465  and  _466
REMARK  194  A    between atoms: _465  and  _468
REMARK  195  A    between atoms: _471  and  _473
REMARK  196  A    between atoms: _473  and  _474
REMARK  197  A    between atoms: _473  and  _476
REMARK  198  A    between atoms: _476  and  _477
REMARK  199  A    between atoms: _481  and  _482
REMARK  200  A    between atoms: _487  and  _489
REMARK  201  A    between atoms: _489  and  _490
REMARK  202  A    between atoms: _489  and  _492
REMARK  203  A    between atoms: _492  and  _493
REMARK  204  A    between atoms: _497  and  _498
REMARK  205  A    between atoms: _503  and  _505
REMARK  206  A    between atoms: _505  and  _506
REMARK  207  A    between atoms: _505  and  _508
REMARK  208  A    between atoms: _511  and  _513
REMARK  209  A    between atoms: _513  and  _514
REMARK  210  A    between atoms: _513  and  _516
REMARK  211  A    between atoms: _516  and  _517
REMARK  212  A    between atoms: _522  and  _524
REMARK  213  A    between atoms: _524  and  _525
REMARK  214  A    between atoms: _524  and  _527
REMARK  215  A    between atoms: _527  and  _528
REMARK  216  A    between atoms: _531  and  _533
REMARK  217  A    between atoms: _533  and  _534
REMARK  218  A    between atoms: _533  and  _536
REMARK  219  A    between atoms: _536  and  _537
REMARK  220  A    between atoms: _540  and  _542
REMARK  221  A    between atoms: _542  and  _543
REMARK  222  A    between atoms: _545  and  _547
REMARK  223  A    between atoms: _547  and  _548
REMARK  224  A    between atoms: _547  and  _550
REMARK  225  A    between atoms: _550  and  _551
REMARK  226  A    between atoms: _551  and  _552
REMARK  227  A    between atoms: _552  and  _553
REMARK                            x       y       z     vdW  Elec       q    Type
REMARK                         _______ _______ _______ _____ _____    ______ ____
ROOT
ATOM      1  O   HOH     1      21.234  -1.960  13.850  0.00  0.00    +0.000 OA
ENDROOT
TORSDOF 0
REMARK  Name = ../refined-set-2016/2p3b/2p3b_pocket.pdb
REMARK  227 active torsions:
REMARK  status: ('A' for Active; 'I' for Inactive)
REMARK    1  A    between atoms: _1  and  _3
REMARK    2  A    between atoms: _3  and  _4
REMARK    3  A    between atoms: _3  and  _6
REMARK    4  A    between atoms: _6  and  _7
REMARK    5  A    between atoms: _7  and  _8
REMARK    6  A    between atoms: _8  and  _9
REMARK    7  A    between atoms: _18  and  _20
REMARK    8  A    between atoms: _20  and  _21
REMARK    9  A    between atoms: _20  and  _23
REMARK   10  A    between atoms: _23  and  _24
REMARK   11  A    between atoms: _27  and  _29
REMARK   12  A    between atoms: _29  and  _30
REMARK   13  A    between atoms: _29  and  _32
REMARK   14  A    between atoms: _32  and  _33
REMARK   15  A    between atoms: _36  and  _38
REMARK   16  A    between atoms: _38  and  _39
REMARK   17  A    between atoms: _38  and  _41
REMARK   18  A    between atoms: _41  and  _42
REMARK   19  A    between atoms: _45  and  _47
REMARK   20  A    between atoms: _47  and  _48
REMARK   21  A    between atoms: _47  and  _50
REMARK   22  A    between atoms: _50  and  _51
REMARK   23  A    between atoms: _54  and  _56
REMARK   24  A    between atoms: _56  and  _57
REMARK   25  A    between atoms: _59  and  _61
REMARK   26  A    between atoms: _61  and  _62
REMARK   27  A    between atoms: _65  and  _67
REMARK   28  A    between atoms: _67  and  _68
REMARK   29  A    between atoms: _67  and  _70
REMARK   30  A    between atoms: _70  and  _71
REMARK   31  A    between atoms: _74  and  _76
REMARK   32  A    between atoms: _76  and  _77
REMARK   33  A    between atoms: _76  and  _79
REMARK   34  A    between atoms: _79  and  _80
REMARK   35  A    between atoms: _83  and  _85
REMARK   36  A    between atoms: _85  and  _86
REMARK   37  A    between atoms: _85  and  _88
REMARK   38  A    between atoms: _88  and  _89
REMARK   39  A    between atoms: _92  and  _94
REMARK   40  A    between atoms: _94  and  _95
REMARK   41  A    between atoms: _94  and  _97
REMARK   42  A    between atoms: _100  and  _102
REMARK   43  A    between atoms: _102  and  _103
REMARK   44  A    between atoms: _102  and  _105
REMARK   45  A    between atoms: _105  and  _106
REMARK   46  A    between atoms: _106  and  _107
REMARK   47  A    between atoms: _107  and  _108
REMARK   48  A    between atoms: _108  and  _109
REMARK   49  A    between atoms: _113  and  _115
REMARK   50  A    between atoms: _115  and  _116
REMARK   51  A    between atoms: _115  and  _118
REMARK   52  A    between atoms: _118  and  _119
REMARK   53  A    between atoms: _119  and  _120
REMARK   54  A    between atoms: _122  and  _124
REMARK   55  A    between atoms: _124  and  _125
REMARK   56  A    between atoms: _124  and  _127
REMARK   57  A    between atoms: _127  and  _128
REMARK   58  A    between atoms: _131  and  _133
REMARK   59  A    between atoms: _133  and  _134
REMARK   60  A    between atoms: _136  and  _138
REMARK   61  A    between atoms: _138  and  _139
REMARK   62  A    between atoms: _141  and  _143
REMARK   63  A    between atoms: _143  and  _144
REMARK   64  A    between atoms: _143  and  _146
REMARK   65  A    between atoms: _146  and  _147
REMARK   66  A    between atoms: _150  and  _152
REMARK   67  A    between atoms: _152  and  _153
REMARK   68  A    between atoms: _155  and  _157
REMARK   69  A    between atoms: _157  and  _158
REMARK   70  A    between atoms: _160  and  _162
REMARK   71  A    between atoms: _162  and  _163
REMARK   72  A    between atoms: _162  and  _165
REMARK   73  A    between atoms: _165  and  _166
REMARK   74  A    between atoms: _172  and  _174
REMARK   75  A    between atoms: _174  and  _175
REMARK   76  A    between atoms: _174  and  _177
REMARK   77  A    between atoms: _177  and  _178
REMARK   78  A    between atoms: _181  and  _183
REMARK   79  A    between atoms: _183  and  _184
REMARK   80  A    between atoms: _183  and  _186
REMARK   81  A    between atoms: _186  and  _187
REMARK   82  A    between atoms: _191  and  _192
REMARK   83  A    between atoms: _197  and  _199
REMARK   84  A    between atoms: _199  and  _200
REMARK   85  A    between atoms: _199  and  _202
REMARK   86  A    between atoms: _202  and  _203
REMARK   87  A    between atoms: _207  and  _208
REMARK   88  A    between atoms: _213  and  _215
REMARK   89  A    between atoms: _215  and  _216
REMARK   90  A    between atoms: _215  and  _218
REMARK   91  A    between atoms: _221  and  _223
REMARK   92  A    between atoms: _223  and  _224
REMARK   93  A    between atoms: _223  and  _226
REMARK   94  A    between atoms: _226  and  _227
REMARK   95  A    between atoms: _232  and  _234
REMARK   96  A    between atoms: _234  and  _235
REMARK   97  A    between atoms: _234  and  _237
REMARK   98  A    between atoms: _237  and  _238
REMARK   99  A    between atoms: _241  and  _243
REMARK  100  A    between atoms: _243  and  _244
REMARK  101  A    between atoms: _243  and  _246
REMARK  102  A    between atoms: _246  and  _247
REMARK  103  A    between atoms: _250  and  _252
REMARK  104  A    between atoms: _252  and  _253
REMARK  105  A    between atoms: _255  and  _257
REMARK  106  A    between atoms: _257  and  _258
REMARK  107  A    between atoms: _257  and  _260
REMARK  108  A    between atoms: _260  and  _261
REMARK  109  A    between atoms: _261  and  _262
REMARK  110  A    between atoms: _262  and  _263
REMARK  111  A    between atoms: _272  and  _274
REMARK  112  A    between atoms: _274  and  _275
REMARK  113  A    between atoms: _274  and  _277
REMARK  114  A    between atoms: _277  and  _278
REMARK  115  A    between atoms: _283  and  _285
REMARK  116  A    between atoms: _285  and  _286
REMARK  117  A    between atoms: _285  and  _288
REMARK  118  A    between atoms: _288  and  _289
REMARK  119  A    between atoms: _289  and  _290
REMARK  120  A    between atoms: _290  and  _291
REMARK  121  A    between atoms: _300  and  _302
REMARK  122  A    between atoms: _302  and  _303
REMARK  123  A    between atoms: _302  and  _305
REMARK  124  A    between atoms: _305  and  _306
REMARK  125  A    between atoms: _309  and  _311
REMARK  126  A    between atoms: _311  and  _312
REMARK  127  A    between atoms: _311  and  _314
REMARK  128  A    between atoms: _314  and  _315
REMARK  129  A    between atoms: _318  and  _320
REMARK  130  A    between atoms: _320  and  _321
REMARK  131  A    between atoms: _320  and  _323
REMARK  132  A    between atoms: _323  and  _324
REMARK  133  A    between atoms: _327  and  _329
REMARK  134  A    between atoms: _329  and  _330
REMARK  135  A    between atoms: _329  and  _332
REMARK  136  A    between atoms: _332  and  _333
REMARK  137  A    between atoms: _336  and  _338
REMARK  138  A    between atoms: _338  and  _339
REMARK  139  A    between atoms: _341  and  _343
REMARK  140  A    between atoms: _343  and  _344
REMARK  141  A    between atoms: _347  and  _349
REMARK  142  A    between atoms: _349  and  _350
REMARK  143  A    between atoms: _349  and  _352
REMARK  144  A    between atoms: _352  and  _353
REMARK  145  A    between atoms: _356  and  _358
REMARK  146  A    between atoms: _358  and  _359
REMARK  147  A    between atoms: _358  and  _361
REMARK  148  A    between atoms: _361  and  _362
REMARK  149  A    between atoms: _365  and  _367
REMARK  150  A    between atoms: _367  and  _368
REMARK  151  A    between atoms: _367  and  _370
REMARK  152  A    between atoms: _370  and  _371
REMARK  153  A    between atoms: _374  and  _376
REMARK  154  A    between atoms: _376  and  _377
REMARK  155  A    between atoms: _376  and  _379
REMARK  156  A    between atoms: _382  and  _384
REMARK  157  A    between atoms: _384  and  _385
REMARK  158  A    between atoms: _384  and  _387
REMARK  159  A    between atoms: _387  and  _388
REMARK  160  A    between atoms: _388  and  _389
REMARK  161  A    between atoms: _389  and  _390
REMARK  162  A    between atoms: _390  and  _391
REMARK  163  A    between atoms: _395  and  _397
REMARK  164  A    between atoms: _397  and  _398
REMARK  165  A    between atoms: _397  and  _400
REMARK  166  A    between atoms: _400  and  _401
REMARK  167  A    between atoms: _401  and  _402
REMARK  168  A    between atoms: _404  and  _406
REMARK  169  A    between atoms: _406  and  _407
REMARK  170  A    between atoms: _406  and  _409
REMARK  171  A    between atoms: _409  and  _410
REMARK  172  A    between atoms: _413  and  _415
REMARK  173  A    between atoms: _415  and  _416
REMARK  174  A    between atoms: _418  and  _420
REMARK  175  A    between atoms: _420  and  _421
REMARK  176  A    between atoms: _423  and  _425
REMARK  177  A    between atoms: _425  and  _426
REMARK  178  A    between atoms: _425  and  _428
REMARK  179  A    between atoms: _428  and  _429
REMARK  180  A    between atoms: _432  and  _434
REMARK  181  A    between atoms: _434  and  _435
REMARK  182  A    between atoms: _437  and  _439
REMARK  183  A    between atoms: _439  and  _440
REMARK  184  A    between atoms: _442  and  _444
REMARK  185  A    between atoms: _444  and  _445
REMARK  186  A    between atoms: _444  and  _447
REMARK  187  A    between atoms: _447  and  _448
REMARK  188  A    between atoms: _454  and  _456
REMARK  189  A    between atoms: _456  and  _457
REMARK  190  A    between atoms: _456  and  _459
REMARK  191  A    between atoms: _459  and  _460
REMARK  192  A    between atoms: _463  and  _465
REMARK  193  A    between atoms: _465  and  _466
REMARK  194  A    between atoms: _465  and  _468
REMARK  195  A    between atoms: _471  and  _473
REMARK  196  A    between atoms: _473  and  _474
REMARK  197  A    between atoms: _473  and  _476
REMARK  198  A    between atoms: _476  and  _477
REMARK  199  A    between atoms: _481  and  _482
REMARK  200  A    between atoms: _487  and  _489
REMARK  201  A    between atoms: _489  and  _490
REMARK  202  A    between atoms: _489  and  _492
REMARK  203  A    between atoms: _492  and  _493
REMARK  204  A    between atoms: _497  and  _498
REMARK  205  A    between atoms: _503  and  _505
REMARK  206  A    between atoms: _505  and  _506
REMARK  207  A    between atoms: _505  and  _508
REMARK  208  A    between atoms: _511  and  _513
REMARK  209  A    between atoms: _513  and  _514
REMARK  210  A    between atoms: _513  and  _516
REMARK  211  A    between atoms: _516  and  _517
REMARK  212  A    between atoms: _522  and  _524
REMARK  213  A    between atoms: _524  and  _525
REMARK  214  A    between atoms: _524  and  _527
REMARK  215  A    between atoms: _527  and  _528
REMARK  216  A    between atoms: _531  and  _533
REMARK  217  A    between atoms: _533  and  _534
REMARK  218  A    between atoms: _533  and  _536
REMARK  219  A    between atoms: _536  and  _537
REMARK  220  A    between atoms: _540  and  _542
REMARK  221  A    between atoms: _542  and  _543
REMARK  222  A    between atoms: _545  and  _547
REMARK  223  A    between atoms: _547  and  _548
REMARK  224  A    between atoms: _547  and  _550
REMARK  225  A    between atoms: _550  and  _551
REMARK  226  A    between atoms: _551  and  _552
REMARK  227  A    between atoms: _552  and  _553
REMARK                            x       y       z     vdW  Elec       q    Type
REMARK                         _______ _______ _______ _____ _____    ______ ____
ROOT
ATOM      1  O   HOH     1      19.260   6.282  11.372  0.00  0.00    +0.000 OA
ENDROOT
TORSDOF 0
REMARK  Name = ../refined-set-2016/2p3b/2p3b_pocket.pdb
REMARK  227 active torsions:
REMARK  status: ('A' for Active; 'I' for Inactive)
REMARK    1  A    between atoms: _1  and  _3
REMARK    2  A    between atoms: _3  and  _4
REMARK    3  A    between atoms: _3  and  _6
REMARK    4  A    between atoms: _6  and  _7
REMARK    5  A    between atoms: _7  and  _8
REMARK    6  A    between atoms: _8  and  _9
REMARK    7  A    between atoms: _18  and  _20
REMARK    8  A    between atoms: _20  and  _21
REMARK    9  A    between atoms: _20  and  _23
REMARK   10  A    between atoms: _23  and  _24
REMARK   11  A    between atoms: _27  and  _29
REMARK   12  A    between atoms: _29  and  _30
REMARK   13  A    between atoms: _29  and  _32
REMARK   14  A    between atoms: _32  and  _33
REMARK   15  A    between atoms: _36  and  _38
REMARK   16  A    between atoms: _38  and  _39
REMARK   17  A    between atoms: _38  and  _41
REMARK   18  A    between atoms: _41  and  _42
REMARK   19  A    between atoms: _45  and  _47
REMARK   20  A    between atoms: _47  and  _48
REMARK   21  A    between atoms: _47  and  _50
REMARK   22  A    between atoms: _50  and  _51
REMARK   23  A    between atoms: _54  and  _56
REMARK   24  A    between atoms: _56  and  _57
REMARK   25  A    between atoms: _59  and  _61
REMARK   26  A    between atoms: _61  and  _62
REMARK   27  A    between atoms: _65  and  _67
REMARK   28  A    between atoms: _67  and  _68
REMARK   29  A    between atoms: _67  and  _70
REMARK   30  A    between atoms: _70  and  _71
REMARK   31  A    between atoms: _74  and  _76
REMARK   32  A    between atoms: _76  and  _77
REMARK   33  A    between atoms: _76  and  _79
REMARK   34  A    between atoms: _79  and  _80
REMARK   35  A    between atoms: _83  and  _85
REMARK   36  A    between atoms: _85  and  _86
REMARK   37  A    between atoms: _85  and  _88
REMARK   38  A    between atoms: _88  and  _89
REMARK   39  A    between atoms: _92  and  _94
REMARK   40  A    between atoms: _94  and  _95
REMARK   41  A    between atoms: _94  and  _97
REMARK   42  A    between atoms: _100  and  _102
REMARK   43  A    between atoms: _102  and  _103
REMARK   44  A    between atoms: _102  and  _105
REMARK   45  A    between atoms: _105  and  _106
REMARK   46  A    between atoms: _106  and  _107
REMARK   47  A    between atoms: _107  and  _108
REMARK   48  A    between atoms: _108  and  _109
REMARK   49  A    between atoms: _113  and  _115
REMARK   50  A    between atoms: _115  and  _116
REMARK   51  A    between atoms: _115  and  _118
REMARK   52  A    between atoms: _118  and  _119
REMARK   53  A    between atoms: _119  and  _120
REMARK   54  A    between atoms: _122  and  _124
REMARK   55  A    between atoms: _124  and  _125
REMARK   56  A    between atoms: _124  and  _127
REMARK   57  A    between atoms: _127  and  _128
REMARK   58  A    between atoms: _131  and  _133
REMARK   59  A    between atoms: _133  and  _134
REMARK   60  A    between atoms: _136  and  _138
REMARK   61  A    between atoms: _138  and  _139
REMARK   62  A    between atoms: _141  and  _143
REMARK   63  A    between atoms: _143  and  _144
REMARK   64  A    between atoms: _143  and  _146
REMARK   65  A    between atoms: _146  and  _147
REMARK   66  A    between atoms: _150  and  _152
REMARK   67  A    between atoms: _152  and  _153
REMARK   68  A    between atoms: _155  and  _157
REMARK   69  A    between atoms: _157  and  _158
REMARK   70  A    between atoms: _160  and  _162
REMARK   71  A    between atoms: _162  and  _163
REMARK   72  A    between atoms: _162  and  _165
REMARK   73  A    between atoms: _165  and  _166
REMARK   74  A    between atoms: _172  and  _174
REMARK   75  A    between atoms: _174  and  _175
REMARK   76  A    between atoms: _174  and  _177
REMARK   77  A    between atoms: _177  and  _178
REMARK   78  A    between atoms: _181  and  _183
REMARK   79  A    between atoms: _183  and  _184
REMARK   80  A    between atoms: _183  and  _186
REMARK   81  A    between atoms: _186  and  _187
REMARK   82  A    between atoms: _191  and  _192
REMARK   83  A    between atoms: _197  and  _199
REMARK   84  A    between atoms: _199  and  _200
REMARK   85  A    between atoms: _199  and  _202
REMARK   86  A    between atoms: _202  and  _203
REMARK   87  A    between atoms: _207  and  _208
REMARK   88  A    between atoms: _213  and  _215
REMARK   89  A    between atoms: _215  and  _216
REMARK   90  A    between atoms: _215  and  _218
REMARK   91  A    between atoms: _221  and  _223
REMARK   92  A    between atoms: _223  and  _224
REMARK   93  A    between atoms: _223  and  _226
REMARK   94  A    between atoms: _226  and  _227
REMARK   95  A    between atoms: _232  and  _234
REMARK   96  A    between atoms: _234  and  _235
REMARK   97  A    between atoms: _234  and  _237
REMARK   98  A    between atoms: _237  and  _238
REMARK   99  A    between atoms: _241  and  _243
REMARK  100  A    between atoms: _243  and  _244
REMARK  101  A    between atoms: _243  and  _246
REMARK  102  A    between atoms: _246  and  _247
REMARK  103  A    between atoms: _250  and  _252
REMARK  104  A    between atoms: _252  and  _253
REMARK  105  A    between atoms: _255  and  _257
REMARK  106  A    between atoms: _257  and  _258
REMARK  107  A    between atoms: _257  and  _260
REMARK  108  A    between atoms: _260  and  _261
REMARK  109  A    between atoms: _261  and  _262
REMARK  110  A    between atoms: _262  and  _263
REMARK  111  A    between atoms: _272  and  _274
REMARK  112  A    between atoms: _274  and  _275
REMARK  113  A    between atoms: _274  and  _277
REMARK  114  A    between atoms: _277  and  _278
REMARK  115  A    between atoms: _283  and  _285
REMARK  116  A    between atoms: _285  and  _286
REMARK  117  A    between atoms: _285  and  _288
REMARK  118  A    between atoms: _288  and  _289
REMARK  119  A    between atoms: _289  and  _290
REMARK  120  A    between atoms: _290  and  _291
REMARK  121  A    between atoms: _300  and  _302
REMARK  122  A    between atoms: _302  and  _303
REMARK  123  A    between atoms: _302  and  _305
REMARK  124  A    between atoms: _305  and  _306
REMARK  125  A    between atoms: _309  and  _311
REMARK  126  A    between atoms: _311  and  _312
REMARK  127  A    between atoms: _311  and  _314
REMARK  128  A    between atoms: _314  and  _315
REMARK  129  A    between atoms: _318  and  _320
REMARK  130  A    between atoms: _320  and  _321
REMARK  131  A    between atoms: _320  and  _323
REMARK  132  A    between atoms: _323  and  _324
REMARK  133  A    between atoms: _327  and  _329
REMARK  134  A    between atoms: _329  and  _330
REMARK  135  A    between atoms: _329  and  _332
REMARK  136  A    between atoms: _332  and  _333
REMARK  137  A    between atoms: _336  and  _338
REMARK  138  A    between atoms: _338  and  _339
REMARK  139  A    between atoms: _341  and  _343
REMARK  140  A    between atoms: _343  and  _344
REMARK  141  A    between atoms: _347  and  _349
REMARK  142  A    between atoms: _349  and  _350
REMARK  143  A    between atoms: _349  and  _352
REMARK  144  A    between atoms: _352  and  _353
REMARK  145  A    between atoms: _356  and  _358
REMARK  146  A    between atoms: _358  and  _359
REMARK  147  A    between atoms: _358  and  _361
REMARK  148  A    between atoms: _361  and  _362
REMARK  149  A    between atoms: _365  and  _367
REMARK  150  A    between atoms: _367  and  _368
REMARK  151  A    between atoms: _367  and  _370
REMARK  152  A    between atoms: _370  and  _371
REMARK  153  A    between atoms: _374  and  _376
REMARK  154  A    between atoms: _376  and  _377
REMARK  155  A    between atoms: _376  and  _379
REMARK  156  A    between atoms: _382  and  _384
REMARK  157  A    between atoms: _384  and  _385
REMARK  158  A    between atoms: _384  and  _387
REMARK  159  A    between atoms: _387  and  _388
REMARK  160  A    between atoms: _388  and  _389
REMARK  161  A    between atoms: _389  and  _390
REMARK  162  A    between atoms: _390  and  _391
REMARK  163  A    between atoms: _395  and  _397
REMARK  164  A    between atoms: _397  and  _398
REMARK  165  A    between atoms: _397  and  _400
REMARK  166  A    between atoms: _400  and  _401
REMARK  167  A    between atoms: _401  and  _402
REMARK  168  A    between atoms: _404  and  _406
REMARK  169  A    between atoms: _406  and  _407
REMARK  170  A    between atoms: _406  and  _409
REMARK  171  A    between atoms: _409  and  _410
REMARK  172  A    between atoms: _413  and  _415
REMARK  173  A    between atoms: _415  and  _416
REMARK  174  A    between atoms: _418  and  _420
REMARK  175  A    between atoms: _420  and  _421
REMARK  176  A    between atoms: _423  and  _425
REMARK  177  A    between atoms: _425  and  _426
REMARK  178  A    between atoms: _425  and  _428
REMARK  179  A    between atoms: _428  and  _429
REMARK  180  A    between atoms: _432  and  _434
REMARK  181  A    between atoms: _434  and  _435
REMARK  182  A    between atoms: _437  and  _439
REMARK  183  A    between atoms: _439  and  _440
REMARK  184  A    between atoms: _442  and  _444
REMARK  185  A    between atoms: _444  and  _445
REMARK  186  A    between atoms: _444  and  _447
REMARK  187  A    between atoms: _447  and  _448
REMARK  188  A    between atoms: _454  and  _456
REMARK  189  A    between atoms: _456  and  _457
REMARK  190  A    between atoms: _456  and  _459
REMARK  191  A    between atoms: _459  and  _460
REMARK  192  A    between atoms: _463  and  _465
REMARK  193  A    between atoms: _465  and  _466
REMARK  194  A    between atoms: _465  and  _468
REMARK  195  A    between atoms: _471  and  _473
REMARK  196  A    between atoms: _473  and  _474
REMARK  197  A    between atoms: _473  and  _476
REMARK  198  A    between atoms: _476  and  _477
REMARK  199  A    between atoms: _481  and  _482
REMARK  200  A    between atoms: _487  and  _489
REMARK  201  A    between atoms: _489  and  _490
REMARK  202  A    between atoms: _489  and  _492
REMARK  203  A    between atoms: _492  and  _493
REMARK  204  A    between atoms: _497  and  _498
REMARK  205  A    between atoms: _503  and  _505
REMARK  206  A    between atoms: _505  and  _506
REMARK  207  A    between atoms: _505  and  _508
REMARK  208  A    between atoms: _511  and  _513
REMARK  209  A    between atoms: _513  and  _514
REMARK  210  A    between atoms: _513  and  _516
REMARK  211  A    between atoms: _516  and  _517
REMARK  212  A    between atoms: _522  and  _524
REMARK  213  A    between atoms: _524  and  _525
REMARK  214  A    between atoms: _524  and  _527
REMARK  215  A    between atoms: _527  and  _528
REMARK  216  A    between atoms: _531  and  _533
REMARK  217  A    between atoms: _533  and  _534
REMARK  218  A    between atoms: _533  and  _536
REMARK  219  A    between atoms: _536  and  _537
REMARK  220  A    between atoms: _540  and  _542
REMARK  221  A    between atoms: _542  and  _543
REMARK  222  A    between atoms: _545  and  _547
REMARK  223  A    between atoms: _547  and  _548
REMARK  224  A    between atoms: _547  and  _550
REMARK  225  A    between atoms: _550  and  _551
REMARK  226  A    between atoms: _551  and  _552
REMARK  227  A    between atoms: _552  and  _553
REMARK                            x       y       z     vdW  Elec       q    Type
REMARK                         _______ _______ _______ _____ _____    ______ ____
ROOT
ATOM      1  O   HOH     1      21.678   5.272   4.930  0.00  0.00    +0.000 OA
ENDROOT
TORSDOF 0
REMARK  Name = ../refined-set-2016/2p3b/2p3b_pocket.pdb
REMARK  227 active torsions:
REMARK  status: ('A' for Active; 'I' for Inactive)
REMARK    1  A    between atoms: _1  and  _3
REMARK    2  A    between atoms: _3  and  _4
REMARK    3  A    between atoms: _3  and  _6
REMARK    4  A    between atoms: _6  and  _7
REMARK    5  A    between atoms: _7  and  _8
REMARK    6  A    between atoms: _8  and  _9
REMARK    7  A    between atoms: _18  and  _20
REMARK    8  A    between atoms: _20  and  _21
REMARK    9  A    between atoms: _20  and  _23
REMARK   10  A    between atoms: _23  and  _24
REMARK   11  A    between atoms: _27  and  _29
REMARK   12  A    between atoms: _29  and  _30
REMARK   13  A    between atoms: _29  and  _32
REMARK   14  A    between atoms: _32  and  _33
REMARK   15  A    between atoms: _36  and  _38
REMARK   16  A    between atoms: _38  and  _39
REMARK   17  A    between atoms: _38  and  _41
REMARK   18  A    between atoms: _41  and  _42
REMARK   19  A    between atoms: _45  and  _47
REMARK   20  A    between atoms: _47  and  _48
REMARK   21  A    between atoms: _47  and  _50
REMARK   22  A    between atoms: _50  and  _51
REMARK   23  A    between atoms: _54  and  _56
REMARK   24  A    between atoms: _56  and  _57
REMARK   25  A    between atoms: _59  and  _61
REMARK   26  A    between atoms: _61  and  _62
REMARK   27  A    between atoms: _65  and  _67
REMARK   28  A    between atoms: _67  and  _68
REMARK   29  A    between atoms: _67  and  _70
REMARK   30  A    between atoms: _70  and  _71
REMARK   31  A    between atoms: _74  and  _76
REMARK   32  A    between atoms: _76  and  _77
REMARK   33  A    between atoms: _76  and  _79
REMARK   34  A    between atoms: _79  and  _80
REMARK   35  A    between atoms: _83  and  _85
REMARK   36  A    between atoms: _85  and  _86
REMARK   37  A    between atoms: _85  and  _88
REMARK   38  A    between atoms: _88  and  _89
REMARK   39  A    between atoms: _92  and  _94
REMARK   40  A    between atoms: _94  and  _95
REMARK   41  A    between atoms: _94  and  _97
REMARK   42  A    between atoms: _100  and  _102
REMARK   43  A    between atoms: _102  and  _103
REMARK   44  A    between atoms: _102  and  _105
REMARK   45  A    between atoms: _105  and  _106
REMARK   46  A    between atoms: _106  and  _107
REMARK   47  A    between atoms: _107  and  _108
REMARK   48  A    between atoms: _108  and  _109
REMARK   49  A    between atoms: _113  and  _115
REMARK   50  A    between atoms: _115  and  _116
REMARK   51  A    between atoms: _115  and  _118
REMARK   52  A    between atoms: _118  and  _119
REMARK   53  A    between atoms: _119  and  _120
REMARK   54  A    between atoms: _122  and  _124
REMARK   55  A    between atoms: _124  and  _125
REMARK   56  A    between atoms: _124  and  _127
REMARK   57  A    between atoms: _127  and  _128
REMARK   58  A    between atoms: _131  and  _133
REMARK   59  A    between atoms: _133  and  _134
REMARK   60  A    between atoms: _136  and  _138
REMARK   61  A    between atoms: _138  and  _139
REMARK   62  A    between atoms: _141  and  _143
REMARK   63  A    between atoms: _143  and  _144
REMARK   64  A    between atoms: _143  and  _146
REMARK   65  A    between atoms: _146  and  _147
REMARK   66  A    between atoms: _150  and  _152
REMARK   67  A    between atoms: _152  and  _153
REMARK   68  A    between atoms: _155  and  _157
REMARK   69  A    between atoms: _157  and  _158
REMARK   70  A    between atoms: _160  and  _162
REMARK   71  A    between atoms: _162  and  _163
REMARK   72  A    between atoms: _162  and  _165
REMARK   73  A    between atoms: _165  and  _166
REMARK   74  A    between atoms: _172  and  _174
REMARK   75  A    between atoms: _174  and  _175
REMARK   76  A    between atoms: _174  and  _177
REMARK   77  A    between atoms: _177  and  _178
REMARK   78  A    between atoms: _181  and  _183
REMARK   79  A    between atoms: _183  and  _184
REMARK   80  A    between atoms: _183  and  _186
REMARK   81  A    between atoms: _186  and  _187
REMARK   82  A    between atoms: _191  and  _192
REMARK   83  A    between atoms: _197  and  _199
REMARK   84  A    between atoms: _199  and  _200
REMARK   85  A    between atoms: _199  and  _202
REMARK   86  A    between atoms: _202  and  _203
REMARK   87  A    between atoms: _207  and  _208
REMARK   88  A    between atoms: _213  and  _215
REMARK   89  A    between atoms: _215  and  _216
REMARK   90  A    between atoms: _215  and  _218
REMARK   91  A    between atoms: _221  and  _223
REMARK   92  A    between atoms: _223  and  _224
REMARK   93  A    between atoms: _223  and  _226
REMARK   94  A    between atoms: _226  and  _227
REMARK   95  A    between atoms: _232  and  _234
REMARK   96  A    between atoms: _234  and  _235
REMARK   97  A    between atoms: _234  and  _237
REMARK   98  A    between atoms: _237  and  _238
REMARK   99  A    between atoms: _241  and  _243
REMARK  100  A    between atoms: _243  and  _244
REMARK  101  A    between atoms: _243  and  _246
REMARK  102  A    between atoms: _246  and  _247
REMARK  103  A    between atoms: _250  and  _252
REMARK  104  A    between atoms: _252  and  _253
REMARK  105  A    between atoms: _255  and  _257
REMARK  106  A    between atoms: _257  and  _258
REMARK  107  A    between atoms: _257  and  _260
REMARK  108  A    between atoms: _260  and  _261
REMARK  109  A    between atoms: _261  and  _262
REMARK  110  A    between atoms: _262  and  _263
REMARK  111  A    between atoms: _272  and  _274
REMARK  112  A    between atoms: _274  and  _275
REMARK  113  A    between atoms: _274  and  _277
REMARK  114  A    between atoms: _277  and  _278
REMARK  115  A    between atoms: _283  and  _285
REMARK  116  A    between atoms: _285  and  _286
REMARK  117  A    between atoms: _285  and  _288
REMARK  118  A    between atoms: _288  and  _289
REMARK  119  A    between atoms: _289  and  _290
REMARK  120  A    between atoms: _290  and  _291
REMARK  121  A    between atoms: _300  and  _302
REMARK  122  A    between atoms: _302  and  _303
REMARK  123  A    between atoms: _302  and  _305
REMARK  124  A    between atoms: _305  and  _306
REMARK  125  A    between atoms: _309  and  _311
REMARK  126  A    between atoms: _311  and  _312
REMARK  127  A    between atoms: _311  and  _314
REMARK  128  A    between atoms: _314  and  _315
REMARK  129  A    between atoms: _318  and  _320
REMARK  130  A    between atoms: _320  and  _321
REMARK  131  A    between atoms: _320  and  _323
REMARK  132  A    between atoms: _323  and  _324
REMARK  133  A    between atoms: _327  and  _329
REMARK  134  A    between atoms: _329  and  _330
REMARK  135  A    between atoms: _329  and  _332
REMARK  136  A    between atoms: _332  and  _333
REMARK  137  A    between atoms: _336  and  _338
REMARK  138  A    between atoms: _338  and  _339
REMARK  139  A    between atoms: _341  and  _343
REMARK  140  A    between atoms: _343  and  _344
REMARK  141  A    between atoms: _347  and  _349
REMARK  142  A    between atoms: _349  and  _350
REMARK  143  A    between atoms: _349  and  _352
REMARK  144  A    between atoms: _352  and  _353
REMARK  145  A    between atoms: _356  and  _358
REMARK  146  A    between atoms: _358  and  _359
REMARK  147  A    between atoms: _358  and  _361
REMARK  148  A    between atoms: _361  and  _362
REMARK  149  A    between atoms: _365  and  _367
REMARK  150  A    between atoms: _367  and  _368
REMARK  151  A    between atoms: _367  and  _370
REMARK  152  A    between atoms: _370  and  _371
REMARK  153  A    between atoms: _374  and  _376
REMARK  154  A    between atoms: _376  and  _377
REMARK  155  A    between atoms: _376  and  _379
REMARK  156  A    between atoms: _382  and  _384
REMARK  157  A    between atoms: _384  and  _385
REMARK  158  A    between atoms: _384  and  _387
REMARK  159  A    between atoms: _387  and  _388
REMARK  160  A    between atoms: _388  and  _389
REMARK  161  A    between atoms: _389  and  _390
REMARK  162  A    between atoms: _390  and  _391
REMARK  163  A    between atoms: _395  and  _397
REMARK  164  A    between atoms: _397  and  _398
REMARK  165  A    between atoms: _397  and  _400
REMARK  166  A    between atoms: _400  and  _401
REMARK  167  A    between atoms: _401  and  _402
REMARK  168  A    between atoms: _404  and  _406
REMARK  169  A    between atoms: _406  and  _407
REMARK  170  A    between atoms: _406  and  _409
REMARK  171  A    between atoms: _409  and  _410
REMARK  172  A    between atoms: _413  and  _415
REMARK  173  A    between atoms: _415  and  _416
REMARK  174  A    between atoms: _418  and  _420
REMARK  175  A    between atoms: _420  and  _421
REMARK  176  A    between atoms: _423  and  _425
REMARK  177  A    between atoms: _425  and  _426
REMARK  178  A    between atoms: _425  and  _428
REMARK  179  A    between atoms: _428  and  _429
REMARK  180  A    between atoms: _432  and  _434
REMARK  181  A    between atoms: _434  and  _435
REMARK  182  A    between atoms: _437  and  _439
REMARK  183  A    between atoms: _439  and  _440
REMARK  184  A    between atoms: _442  and  _444
REMARK  185  A    between atoms: _444  and  _445
REMARK  186  A    between atoms: _444  and  _447
REMARK  187  A    between atoms: _447  and  _448
REMARK  188  A    between atoms: _454  and  _456
REMARK  189  A    between atoms: _456  and  _457
REMARK  190  A    between atoms: _456  and  _459
REMARK  191  A    between atoms: _459  and  _460
REMARK  192  A    between atoms: _463  and  _465
REMARK  193  A    between atoms: _465  and  _466
REMARK  194  A    between atoms: _465  and  _468
REMARK  195  A    between atoms: _471  and  _473
REMARK  196  A    between atoms: _473  and  _474
REMARK  197  A    between atoms: _473  and  _476
REMARK  198  A    between atoms: _476  and  _477
REMARK  199  A    between atoms: _481  and  _482
REMARK  200  A    between atoms: _487  and  _489
REMARK  201  A    between atoms: _489  and  _490
REMARK  202  A    between atoms: _489  and  _492
REMARK  203  A    between atoms: _492  and  _493
REMARK  204  A    between atoms: _497  and  _498
REMARK  205  A    between atoms: _503  and  _505
REMARK  206  A    between atoms: _505  and  _506
REMARK  207  A    between atoms: _505  and  _508
REMARK  208  A    between atoms: _511  and  _513
REMARK  209  A    between atoms: _513  and  _514
REMARK  210  A    between atoms: _513  and  _516
REMARK  211  A    between atoms: _516  and  _517
REMARK  212  A    between atoms: _522  and  _524
REMARK  213  A    between atoms: _524  and  _525
REMARK  214  A    between atoms: _524  and  _527
REMARK  215  A    between atoms: _527  and  _528
REMARK  216  A    between atoms: _531  and  _533
REMARK  217  A    between atoms: _533  and  _534
REMARK  218  A    between atoms: _533  and  _536
REMARK  219  A    between atoms: _536  and  _537
REMARK  220  A    between atoms: _540  and  _542
REMARK  221  A    between atoms: _542  and  _543
REMARK  222  A    between atoms: _545  and  _547
REMARK  223  A    between atoms: _547  and  _548
REMARK  224  A    between atoms: _547  and  _550
REMARK  225  A    between atoms: _550  and  _551
REMARK  226  A    between atoms: _551  and  _552
REMARK  227  A    between atoms: _552  and  _553
REMARK                            x       y       z     vdW  Elec       q    Type
REMARK                         _______ _______ _______ _____ _____    ______ ____
ROOT
ATOM      1  O   HOH     1      25.087   3.728  11.932  0.00  0.00    +0.000 OA
ENDROOT
TORSDOF 0
REMARK  Name = ../refined-set-2016/2p3b/2p3b_pocket.pdb
REMARK  227 active torsions:
REMARK  status: ('A' for Active; 'I' for Inactive)
REMARK    1  A    between atoms: _1  and  _3
REMARK    2  A    between atoms: _3  and  _4
REMARK    3  A    between atoms: _3  and  _6
REMARK    4  A    between atoms: _6  and  _7
REMARK    5  A    between atoms: _7  and  _8
REMARK    6  A    between atoms: _8  and  _9
REMARK    7  A    between atoms: _18  and  _20
REMARK    8  A    between atoms: _20  and  _21
REMARK    9  A    between atoms: _20  and  _23
REMARK   10  A    between atoms: _23  and  _24
REMARK   11  A    between atoms: _27  and  _29
REMARK   12  A    between atoms: _29  and  _30
REMARK   13  A    between atoms: _29  and  _32
REMARK   14  A    between atoms: _32  and  _33
REMARK   15  A    between atoms: _36  and  _38
REMARK   16  A    between atoms: _38  and  _39
REMARK   17  A    between atoms: _38  and  _41
REMARK   18  A    between atoms: _41  and  _42
REMARK   19  A    between atoms: _45  and  _47
REMARK   20  A    between atoms: _47  and  _48
REMARK   21  A    between atoms: _47  and  _50
REMARK   22  A    between atoms: _50  and  _51
REMARK   23  A    between atoms: _54  and  _56
REMARK   24  A    between atoms: _56  and  _57
REMARK   25  A    between atoms: _59  and  _61
REMARK   26  A    between atoms: _61  and  _62
REMARK   27  A    between atoms: _65  and  _67
REMARK   28  A    between atoms: _67  and  _68
REMARK   29  A    between atoms: _67  and  _70
REMARK   30  A    between atoms: _70  and  _71
REMARK   31  A    between atoms: _74  and  _76
REMARK   32  A    between atoms: _76  and  _77
REMARK   33  A    between atoms: _76  and  _79
REMARK   34  A    between atoms: _79  and  _80
REMARK   35  A    between atoms: _83  and  _85
REMARK   36  A    between atoms: _85  and  _86
REMARK   37  A    between atoms: _85  and  _88
REMARK   38  A    between atoms: _88  and  _89
REMARK   39  A    between atoms: _92  and  _94
REMARK   40  A    between atoms: _94  and  _95
REMARK   41  A    between atoms: _94  and  _97
REMARK   42  A    between atoms: _100  and  _102
REMARK   43  A    between atoms: _102  and  _103
REMARK   44  A    between atoms: _102  and  _105
REMARK   45  A    between atoms: _105  and  _106
REMARK   46  A    between atoms: _106  and  _107
REMARK   47  A    between atoms: _107  and  _108
REMARK   48  A    between atoms: _108  and  _109
REMARK   49  A    between atoms: _113  and  _115
REMARK   50  A    between atoms: _115  and  _116
REMARK   51  A    between atoms: _115  and  _118
REMARK   52  A    between atoms: _118  and  _119
REMARK   53  A    between atoms: _119  and  _120
REMARK   54  A    between atoms: _122  and  _124
REMARK   55  A    between atoms: _124  and  _125
REMARK   56  A    between atoms: _124  and  _127
REMARK   57  A    between atoms: _127  and  _128
REMARK   58  A    between atoms: _131  and  _133
REMARK   59  A    between atoms: _133  and  _134
REMARK   60  A    between atoms: _136  and  _138
REMARK   61  A    between atoms: _138  and  _139
REMARK   62  A    between atoms: _141  and  _143
REMARK   63  A    between atoms: _143  and  _144
REMARK   64  A    between atoms: _143  and  _146
REMARK   65  A    between atoms: _146  and  _147
REMARK   66  A    between atoms: _150  and  _152
REMARK   67  A    between atoms: _152  and  _153
REMARK   68  A    between atoms: _155  and  _157
REMARK   69  A    between atoms: _157  and  _158
REMARK   70  A    between atoms: _160  and  _162
REMARK   71  A    between atoms: _162  and  _163
REMARK   72  A    between atoms: _162  and  _165
REMARK   73  A    between atoms: _165  and  _166
REMARK   74  A    between atoms: _172  and  _174
REMARK   75  A    between atoms: _174  and  _175
REMARK   76  A    between atoms: _174  and  _177
REMARK   77  A    between atoms: _177  and  _178
REMARK   78  A    between atoms: _181  and  _183
REMARK   79  A    between atoms: _183  and  _184
REMARK   80  A    between atoms: _183  and  _186
REMARK   81  A    between atoms: _186  and  _187
REMARK   82  A    between atoms: _191  and  _192
REMARK   83  A    between atoms: _197  and  _199
REMARK   84  A    between atoms: _199  and  _200
REMARK   85  A    between atoms: _199  and  _202
REMARK   86  A    between atoms: _202  and  _203
REMARK   87  A    between atoms: _207  and  _208
REMARK   88  A    between atoms: _213  and  _215
REMARK   89  A    between atoms: _215  and  _216
REMARK   90  A    between atoms: _215  and  _218
REMARK   91  A    between atoms: _221  and  _223
REMARK   92  A    between atoms: _223  and  _224
REMARK   93  A    between atoms: _223  and  _226
REMARK   94  A    between atoms: _226  and  _227
REMARK   95  A    between atoms: _232  and  _234
REMARK   96  A    between atoms: _234  and  _235
REMARK   97  A    between atoms: _234  and  _237
REMARK   98  A    between atoms: _237  and  _238
REMARK   99  A    between atoms: _241  and  _243
REMARK  100  A    between atoms: _243  and  _244
REMARK  101  A    between atoms: _243  and  _246
REMARK  102  A    between atoms: _246  and  _247
REMARK  103  A    between atoms: _250  and  _252
REMARK  104  A    between atoms: _252  and  _253
REMARK  105  A    between atoms: _255  and  _257
REMARK  106  A    between atoms: _257  and  _258
REMARK  107  A    between atoms: _257  and  _260
REMARK  108  A    between atoms: _260  and  _261
REMARK  109  A    between atoms: _261  and  _262
REMARK  110  A    between atoms: _262  and  _263
REMARK  111  A    between atoms: _272  and  _274
REMARK  112  A    between atoms: _274  and  _275
REMARK  113  A    between atoms: _274  and  _277
REMARK  114  A    between atoms: _277  and  _278
REMARK  115  A    between atoms: _283  and  _285
REMARK  116  A    between atoms: _285  and  _286
REMARK  117  A    between atoms: _285  and  _288
REMARK  118  A    between atoms: _288  and  _289
REMARK  119  A    between atoms: _289  and  _290
REMARK  120  A    between atoms: _290  and  _291
REMARK  121  A    between atoms: _300  and  _302
REMARK  122  A    between atoms: _302  and  _303
REMARK  123  A    between atoms: _302  and  _305
REMARK  124  A    between atoms: _305  and  _306
REMARK  125  A    between atoms: _309  and  _311
REMARK  126  A    between atoms: _311  and  _312
REMARK  127  A    between atoms: _311  and  _314
REMARK  128  A    between atoms: _314  and  _315
REMARK  129  A    between atoms: _318  and  _320
REMARK  130  A    between atoms: _320  and  _321
REMARK  131  A    between atoms: _320  and  _323
REMARK  132  A    between atoms: _323  and  _324
REMARK  133  A    between atoms: _327  and  _329
REMARK  134  A    between atoms: _329  and  _330
REMARK  135  A    between atoms: _329  and  _332
REMARK  136  A    between atoms: _332  and  _333
REMARK  137  A    between atoms: _336  and  _338
REMARK  138  A    between atoms: _338  and  _339
REMARK  139  A    between atoms: _341  and  _343
REMARK  140  A    between atoms: _343  and  _344
REMARK  141  A    between atoms: _347  and  _349
REMARK  142  A    between atoms: _349  and  _350
REMARK  143  A    between atoms: _349  and  _352
REMARK  144  A    between atoms: _352  and  _353
REMARK  145  A    between atoms: _356  and  _358
REMARK  146  A    between atoms: _358  and  _359
REMARK  147  A    between atoms: _358  and  _361
REMARK  148  A    between atoms: _361  and  _362
REMARK  149  A    between atoms: _365  and  _367
REMARK  150  A    between atoms: _367  and  _368
REMARK  151  A    between atoms: _367  and  _370
REMARK  152  A    between atoms: _370  and  _371
REMARK  153  A    between atoms: _374  and  _376
REMARK  154  A    between atoms: _376  and  _377
REMARK  155  A    between atoms: _376  and  _379
REMARK  156  A    between atoms: _382  and  _384
REMARK  157  A    between atoms: _384  and  _385
REMARK  158  A    between atoms: _384  and  _387
REMARK  159  A    between atoms: _387  and  _388
REMARK  160  A    between atoms: _388  and  _389
REMARK  161  A    between atoms: _389  and  _390
REMARK  162  A    between atoms: _390  and  _391
REMARK  163  A    between atoms: _395  and  _397
REMARK  164  A    between atoms: _397  and  _398
REMARK  165  A    between atoms: _397  and  _400
REMARK  166  A    between atoms: _400  and  _401
REMARK  167  A    between atoms: _401  and  _402
REMARK  168  A    between atoms: _404  and  _406
REMARK  169  A    between atoms: _406  and  _407
REMARK  170  A    between atoms: _406  and  _409
REMARK  171  A    between atoms: _409  and  _410
REMARK  172  A    between atoms: _413  and  _415
REMARK  173  A    between atoms: _415  and  _416
REMARK  174  A    between atoms: _418  and  _420
REMARK  175  A    between atoms: _420  and  _421
REMARK  176  A    between atoms: _423  and  _425
REMARK  177  A    between atoms: _425  and  _426
REMARK  178  A    between atoms: _425  and  _428
REMARK  179  A    between atoms: _428  and  _429
REMARK  180  A    between atoms: _432  and  _434
REMARK  181  A    between atoms: _434  and  _435
REMARK  182  A    between atoms: _437  and  _439
REMARK  183  A    between atoms: _439  and  _440
REMARK  184  A    between atoms: _442  and  _444
REMARK  185  A    between atoms: _444  and  _445
REMARK  186  A    between atoms: _444  and  _447
REMARK  187  A    between atoms: _447  and  _448
REMARK  188  A    between atoms: _454  and  _456
REMARK  189  A    between atoms: _456  and  _457
REMARK  190  A    between atoms: _456  and  _459
REMARK  191  A    between atoms: _459  and  _460
REMARK  192  A    between atoms: _463  and  _465
REMARK  193  A    between atoms: _465  and  _466
REMARK  194  A    between atoms: _465  and  _468
REMARK  195  A    between atoms: _471  and  _473
REMARK  196  A    between atoms: _473  and  _474
REMARK  197  A    between atoms: _473  and  _476
REMARK  198  A    between atoms: _476  and  _477
REMARK  199  A    between atoms: _481  and  _482
REMARK  200  A    between atoms: _487  and  _489
REMARK  201  A    between atoms: _489  and  _490
REMARK  202  A    between atoms: _489  and  _492
REMARK  203  A    between atoms: _492  and  _493
REMARK  204  A    between atoms: _497  and  _498
REMARK  205  A    between atoms: _503  and  _505
REMARK  206  A    between atoms: _505  and  _506
REMARK  207  A    between atoms: _505  and  _508
REMARK  208  A    between atoms: _511  and  _513
REMARK  209  A    between atoms: _513  and  _514
REMARK  210  A    between atoms: _513  and  _516
REMARK  211  A    between atoms: _516  and  _517
REMARK  212  A    between atoms: _522  and  _524
REMARK  213  A    between atoms: _524  and  _525
REMARK  214  A    between atoms: _524  and  _527
REMARK  215  A    between atoms: _527  and  _528
REMARK  216  A    between atoms: _531  and  _533
REMARK  217  A    between atoms: _533  and  _534
REMARK  218  A    between atoms: _533  and  _536
REMARK  219  A    between atoms: _536  and  _537
REMARK  220  A    between atoms: _540  and  _542
REMARK  221  A    between atoms: _542  and  _543
REMARK  222  A    between atoms: _545  and  _547
REMARK  223  A    between atoms: _547  and  _548
REMARK  224  A    between atoms: _547  and  _550
REMARK  225  A    between atoms: _550  and  _551
REMARK  226  A    between atoms: _551  and  _552
REMARK  227  A    between atoms: _552  and  _553
REMARK                            x       y       z     vdW  Elec       q    Type
REMARK                         _______ _______ _______ _____ _____    ______ ____
ROOT
ATOM      1  O   HOH     1      20.953   4.208  13.849  0.00  0.00    +0.000 OA
ENDROOT
TORSDOF 0
REMARK  Name = ../refined-set-2016/2p3b/2p3b_pocket.pdb
REMARK  227 active torsions:
REMARK  status: ('A' for Active; 'I' for Inactive)
REMARK    1  A    between atoms: _1  and  _3
REMARK    2  A    between atoms: _3  and  _4
REMARK    3  A    between atoms: _3  and  _6
REMARK    4  A    between atoms: _6  and  _7
REMARK    5  A    between atoms: _7  and  _8
REMARK    6  A    between atoms: _8  and  _9
REMARK    7  A    between atoms: _18  and  _20
REMARK    8  A    between atoms: _20  and  _21
REMARK    9  A    between atoms: _20  and  _23
REMARK   10  A    between atoms: _23  and  _24
REMARK   11  A    between atoms: _27  and  _29
REMARK   12  A    between atoms: _29  and  _30
REMARK   13  A    between atoms: _29  and  _32
REMARK   14  A    between atoms: _32  and  _33
REMARK   15  A    between atoms: _36  and  _38
REMARK   16  A    between atoms: _38  and  _39
REMARK   17  A    between atoms: _38  and  _41
REMARK   18  A    between atoms: _41  and  _42
REMARK   19  A    between atoms: _45  and  _47
REMARK   20  A    between atoms: _47  and  _48
REMARK   21  A    between atoms: _47  and  _50
REMARK   22  A    between atoms: _50  and  _51
REMARK   23  A    between atoms: _54  and  _56
REMARK   24  A    between atoms: _56  and  _57
REMARK   25  A    between atoms: _59  and  _61
REMARK   26  A    between atoms: _61  and  _62
REMARK   27  A    between atoms: _65  and  _67
REMARK   28  A    between atoms: _67  and  _68
REMARK   29  A    between atoms: _67  and  _70
REMARK   30  A    between atoms: _70  and  _71
REMARK   31  A    between atoms: _74  and  _76
REMARK   32  A    between atoms: _76  and  _77
REMARK   33  A    between atoms: _76  and  _79
REMARK   34  A    between atoms: _79  and  _80
REMARK   35  A    between atoms: _83  and  _85
REMARK   36  A    between atoms: _85  and  _86
REMARK   37  A    between atoms: _85  and  _88
REMARK   38  A    between atoms: _88  and  _89
REMARK   39  A    between atoms: _92  and  _94
REMARK   40  A    between atoms: _94  and  _95
REMARK   41  A    between atoms: _94  and  _97
REMARK   42  A    between atoms: _100  and  _102
REMARK   43  A    between atoms: _102  and  _103
REMARK   44  A    between atoms: _102  and  _105
REMARK   45  A    between atoms: _105  and  _106
REMARK   46  A    between atoms: _106  and  _107
REMARK   47  A    between atoms: _107  and  _108
REMARK   48  A    between atoms: _108  and  _109
REMARK   49  A    between atoms: _113  and  _115
REMARK   50  A    between atoms: _115  and  _116
REMARK   51  A    between atoms: _115  and  _118
REMARK   52  A    between atoms: _118  and  _119
REMARK   53  A    between atoms: _119  and  _120
REMARK   54  A    between atoms: _122  and  _124
REMARK   55  A    between atoms: _124  and  _125
REMARK   56  A    between atoms: _124  and  _127
REMARK   57  A    between atoms: _127  and  _128
REMARK   58  A    between atoms: _131  and  _133
REMARK   59  A    between atoms: _133  and  _134
REMARK   60  A    between atoms: _136  and  _138
REMARK   61  A    between atoms: _138  and  _139
REMARK   62  A    between atoms: _141  and  _143
REMARK   63  A    between atoms: _143  and  _144
REMARK   64  A    between atoms: _143  and  _146
REMARK   65  A    between atoms: _146  and  _147
REMARK   66  A    between atoms: _150  and  _152
REMARK   67  A    between atoms: _152  and  _153
REMARK   68  A    between atoms: _155  and  _157
REMARK   69  A    between atoms: _157  and  _158
REMARK   70  A    between atoms: _160  and  _162
REMARK   71  A    between atoms: _162  and  _163
REMARK   72  A    between atoms: _162  and  _165
REMARK   73  A    between atoms: _165  and  _166
REMARK   74  A    between atoms: _172  and  _174
REMARK   75  A    between atoms: _174  and  _175
REMARK   76  A    between atoms: _174  and  _177
REMARK   77  A    between atoms: _177  and  _178
REMARK   78  A    between atoms: _181  and  _183
REMARK   79  A    between atoms: _183  and  _184
REMARK   80  A    between atoms: _183  and  _186
REMARK   81  A    between atoms: _186  and  _187
REMARK   82  A    between atoms: _191  and  _192
REMARK   83  A    between atoms: _197  and  _199
REMARK   84  A    between atoms: _199  and  _200
REMARK   85  A    between atoms: _199  and  _202
REMARK   86  A    between atoms: _202  and  _203
REMARK   87  A    between atoms: _207  and  _208
REMARK   88  A    between atoms: _213  and  _215
REMARK   89  A    between atoms: _215  and  _216
REMARK   90  A    between atoms: _215  and  _218
REMARK   91  A    between atoms: _221  and  _223
REMARK   92  A    between atoms: _223  and  _224
REMARK   93  A    between atoms: _223  and  _226
REMARK   94  A    between atoms: _226  and  _227
REMARK   95  A    between atoms: _232  and  _234
REMARK   96  A    between atoms: _234  and  _235
REMARK   97  A    between atoms: _234  and  _237
REMARK   98  A    between atoms: _237  and  _238
REMARK   99  A    between atoms: _241  and  _243
REMARK  100  A    between atoms: _243  and  _244
REMARK  101  A    between atoms: _243  and  _246
REMARK  102  A    between atoms: _246  and  _247
REMARK  103  A    between atoms: _250  and  _252
REMARK  104  A    between atoms: _252  and  _253
REMARK  105  A    between atoms: _255  and  _257
REMARK  106  A    between atoms: _257  and  _258
REMARK  107  A    between atoms: _257  and  _260
REMARK  108  A    between atoms: _260  and  _261
REMARK  109  A    between atoms: _261  and  _262
REMARK  110  A    between atoms: _262  and  _263
REMARK  111  A    between atoms: _272  and  _274
REMARK  112  A    between atoms: _274  and  _275
REMARK  113  A    between atoms: _274  and  _277
REMARK  114  A    between atoms: _277  and  _278
REMARK  115  A    between atoms: _283  and  _285
REMARK  116  A    between atoms: _285  and  _286
REMARK  117  A    between atoms: _285  and  _288
REMARK  118  A    between atoms: _288  and  _289
REMARK  119  A    between atoms: _289  and  _290
REMARK  120  A    between atoms: _290  and  _291
REMARK  121  A    between atoms: _300  and  _302
REMARK  122  A    between atoms: _302  and  _303
REMARK  123  A    between atoms: _302  and  _305
REMARK  124  A    between atoms: _305  and  _306
REMARK  125  A    between atoms: _309  and  _311
REMARK  126  A    between atoms: _311  and  _312
REMARK  127  A    between atoms: _311  and  _314
REMARK  128  A    between atoms: _314  and  _315
REMARK  129  A    between atoms: _318  and  _320
REMARK  130  A    between atoms: _320  and  _321
REMARK  131  A    between atoms: _320  and  _323
REMARK  132  A    between atoms: _323  and  _324
REMARK  133  A    between atoms: _327  and  _329
REMARK  134  A    between atoms: _329  and  _330
REMARK  135  A    between atoms: _329  and  _332
REMARK  136  A    between atoms: _332  and  _333
REMARK  137  A    between atoms: _336  and  _338
REMARK  138  A    between atoms: _338  and  _339
REMARK  139  A    between atoms: _341  and  _343
REMARK  140  A    between atoms: _343  and  _344
REMARK  141  A    between atoms: _347  and  _349
REMARK  142  A    between atoms: _349  and  _350
REMARK  143  A    between atoms: _349  and  _352
REMARK  144  A    between atoms: _352  and  _353
REMARK  145  A    between atoms: _356  and  _358
REMARK  146  A    between atoms: _358  and  _359
REMARK  147  A    between atoms: _358  and  _361
REMARK  148  A    between atoms: _361  and  _362
REMARK  149  A    between atoms: _365  and  _367
REMARK  150  A    between atoms: _367  and  _368
REMARK  151  A    between atoms: _367  and  _370
REMARK  152  A    between atoms: _370  and  _371
REMARK  153  A    between atoms: _374  and  _376
REMARK  154  A    between atoms: _376  and  _377
REMARK  155  A    between atoms: _376  and  _379
REMARK  156  A    between atoms: _382  and  _384
REMARK  157  A    between atoms: _384  and  _385
REMARK  158  A    between atoms: _384  and  _387
REMARK  159  A    between atoms: _387  and  _388
REMARK  160  A    between atoms: _388  and  _389
REMARK  161  A    between atoms: _389  and  _390
REMARK  162  A    between atoms: _390  and  _391
REMARK  163  A    between atoms: _395  and  _397
REMARK  164  A    between atoms: _397  and  _398
REMARK  165  A    between atoms: _397  and  _400
REMARK  166  A    between atoms: _400  and  _401
REMARK  167  A    between atoms: _401  and  _402
REMARK  168  A    between atoms: _404  and  _406
REMARK  169  A    between atoms: _406  and  _407
REMARK  170  A    between atoms: _406  and  _409
REMARK  171  A    between atoms: _409  and  _410
REMARK  172  A    between atoms: _413  and  _415
REMARK  173  A    between atoms: _415  and  _416
REMARK  174  A    between atoms: _418  and  _420
REMARK  175  A    between atoms: _420  and  _421
REMARK  176  A    between atoms: _423  and  _425
REMARK  177  A    between atoms: _425  and  _426
REMARK  178  A    between atoms: _425  and  _428
REMARK  179  A    between atoms: _428  and  _429
REMARK  180  A    between atoms: _432  and  _434
REMARK  181  A    between atoms: _434  and  _435
REMARK  182  A    between atoms: _437  and  _439
REMARK  183  A    between atoms: _439  and  _440
REMARK  184  A    between atoms: _442  and  _444
REMARK  185  A    between atoms: _444  and  _445
REMARK  186  A    between atoms: _444  and  _447
REMARK  187  A    between atoms: _447  and  _448
REMARK  188  A    between atoms: _454  and  _456
REMARK  189  A    between atoms: _456  and  _457
REMARK  190  A    between atoms: _456  and  _459
REMARK  191  A    between atoms: _459  and  _460
REMARK  192  A    between atoms: _463  and  _465
REMARK  193  A    between atoms: _465  and  _466
REMARK  194  A    between atoms: _465  and  _468
REMARK  195  A    between atoms: _471  and  _473
REMARK  196  A    between atoms: _473  and  _474
REMARK  197  A    between atoms: _473  and  _476
REMARK  198  A    between atoms: _476  and  _477
REMARK  199  A    between atoms: _481  and  _482
REMARK  200  A    between atoms: _487  and  _489
REMARK  201  A    between atoms: _489  and  _490
REMARK  202  A    between atoms: _489  and  _492
REMARK  203  A    between atoms: _492  and  _493
REMARK  204  A    between atoms: _497  and  _498
REMARK  205  A    between atoms: _503  and  _505
REMARK  206  A    between atoms: _505  and  _506
REMARK  207  A    between atoms: _505  and  _508
REMARK  208  A    between atoms: _511  and  _513
REMARK  209  A    between atoms: _513  and  _514
REMARK  210  A    between atoms: _513  and  _516
REMARK  211  A    between atoms: _516  and  _517
REMARK  212  A    between atoms: _522  and  _524
REMARK  213  A    between atoms: _524  and  _525
REMARK  214  A    between atoms: _524  and  _527
REMARK  215  A    between atoms: _527  and  _528
REMARK  216  A    between atoms: _531  and  _533
REMARK  217  A    between atoms: _533  and  _534
REMARK  218  A    between atoms: _533  and  _536
REMARK  219  A    between atoms: _536  and  _537
REMARK  220  A    between atoms: _540  and  _542
REMARK  221  A    between atoms: _542  and  _543
REMARK  222  A    between atoms: _545  and  _547
REMARK  223  A    between atoms: _547  and  _548
REMARK  224  A    between atoms: _547  and  _550
REMARK  225  A    between atoms: _550  and  _551
REMARK  226  A    between atoms: _551  and  _552
REMARK  227  A    between atoms: _552  and  _553
REMARK                            x       y       z     vdW  Elec       q    Type
REMARK                         _______ _______ _______ _____ _____    ______ ____
ROOT
ATOM      1  O   HOH     1      24.717  -5.054  -3.837  0.00  0.00    +0.000 OA
ENDROOT
TORSDOF 0
REMARK  Name = ../refined-set-2016/2p3b/2p3b_pocket.pdb
REMARK  227 active torsions:
REMARK  status: ('A' for Active; 'I' for Inactive)
REMARK    1  A    between atoms: _1  and  _3
REMARK    2  A    between atoms: _3  and  _4
REMARK    3  A    between atoms: _3  and  _6
REMARK    4  A    between atoms: _6  and  _7
REMARK    5  A    between atoms: _7  and  _8
REMARK    6  A    between atoms: _8  and  _9
REMARK    7  A    between atoms: _18  and  _20
REMARK    8  A    between atoms: _20  and  _21
REMARK    9  A    between atoms: _20  and  _23
REMARK   10  A    between atoms: _23  and  _24
REMARK   11  A    between atoms: _27  and  _29
REMARK   12  A    between atoms: _29  and  _30
REMARK   13  A    between atoms: _29  and  _32
REMARK   14  A    between atoms: _32  and  _33
REMARK   15  A    between atoms: _36  and  _38
REMARK   16  A    between atoms: _38  and  _39
REMARK   17  A    between atoms: _38  and  _41
REMARK   18  A    between atoms: _41  and  _42
REMARK   19  A    between atoms: _45  and  _47
REMARK   20  A    between atoms: _47  and  _48
REMARK   21  A    between atoms: _47  and  _50
REMARK   22  A    between atoms: _50  and  _51
REMARK   23  A    between atoms: _54  and  _56
REMARK   24  A    between atoms: _56  and  _57
REMARK   25  A    between atoms: _59  and  _61
REMARK   26  A    between atoms: _61  and  _62
REMARK   27  A    between atoms: _65  and  _67
REMARK   28  A    between atoms: _67  and  _68
REMARK   29  A    between atoms: _67  and  _70
REMARK   30  A    between atoms: _70  and  _71
REMARK   31  A    between atoms: _74  and  _76
REMARK   32  A    between atoms: _76  and  _77
REMARK   33  A    between atoms: _76  and  _79
REMARK   34  A    between atoms: _79  and  _80
REMARK   35  A    between atoms: _83  and  _85
REMARK   36  A    between atoms: _85  and  _86
REMARK   37  A    between atoms: _85  and  _88
REMARK   38  A    between atoms: _88  and  _89
REMARK   39  A    between atoms: _92  and  _94
REMARK   40  A    between atoms: _94  and  _95
REMARK   41  A    between atoms: _94  and  _97
REMARK   42  A    between atoms: _100  and  _102
REMARK   43  A    between atoms: _102  and  _103
REMARK   44  A    between atoms: _102  and  _105
REMARK   45  A    between atoms: _105  and  _106
REMARK   46  A    between atoms: _106  and  _107
REMARK   47  A    between atoms: _107  and  _108
REMARK   48  A    between atoms: _108  and  _109
REMARK   49  A    between atoms: _113  and  _115
REMARK   50  A    between atoms: _115  and  _116
REMARK   51  A    between atoms: _115  and  _118
REMARK   52  A    between atoms: _118  and  _119
REMARK   53  A    between atoms: _119  and  _120
REMARK   54  A    between atoms: _122  and  _124
REMARK   55  A    between atoms: _124  and  _125
REMARK   56  A    between atoms: _124  and  _127
REMARK   57  A    between atoms: _127  and  _128
REMARK   58  A    between atoms: _131  and  _133
REMARK   59  A    between atoms: _133  and  _134
REMARK   60  A    between atoms: _136  and  _138
REMARK   61  A    between atoms: _138  and  _139
REMARK   62  A    between atoms: _141  and  _143
REMARK   63  A    between atoms: _143  and  _144
REMARK   64  A    between atoms: _143  and  _146
REMARK   65  A    between atoms: _146  and  _147
REMARK   66  A    between atoms: _150  and  _152
REMARK   67  A    between atoms: _152  and  _153
REMARK   68  A    between atoms: _155  and  _157
REMARK   69  A    between atoms: _157  and  _158
REMARK   70  A    between atoms: _160  and  _162
REMARK   71  A    between atoms: _162  and  _163
REMARK   72  A    between atoms: _162  and  _165
REMARK   73  A    between atoms: _165  and  _166
REMARK   74  A    between atoms: _172  and  _174
REMARK   75  A    between atoms: _174  and  _175
REMARK   76  A    between atoms: _174  and  _177
REMARK   77  A    between atoms: _177  and  _178
REMARK   78  A    between atoms: _181  and  _183
REMARK   79  A    between atoms: _183  and  _184
REMARK   80  A    between atoms: _183  and  _186
REMARK   81  A    between atoms: _186  and  _187
REMARK   82  A    between atoms: _191  and  _192
REMARK   83  A    between atoms: _197  and  _199
REMARK   84  A    between atoms: _199  and  _200
REMARK   85  A    between atoms: _199  and  _202
REMARK   86  A    between atoms: _202  and  _203
REMARK   87  A    between atoms: _207  and  _208
REMARK   88  A    between atoms: _213  and  _215
REMARK   89  A    between atoms: _215  and  _216
REMARK   90  A    between atoms: _215  and  _218
REMARK   91  A    between atoms: _221  and  _223
REMARK   92  A    between atoms: _223  and  _224
REMARK   93  A    between atoms: _223  and  _226
REMARK   94  A    between atoms: _226  and  _227
REMARK   95  A    between atoms: _232  and  _234
REMARK   96  A    between atoms: _234  and  _235
REMARK   97  A    between atoms: _234  and  _237
REMARK   98  A    between atoms: _237  and  _238
REMARK   99  A    between atoms: _241  and  _243
REMARK  100  A    between atoms: _243  and  _244
REMARK  101  A    between atoms: _243  and  _246
REMARK  102  A    between atoms: _246  and  _247
REMARK  103  A    between atoms: _250  and  _252
REMARK  104  A    between atoms: _252  and  _253
REMARK  105  A    between atoms: _255  and  _257
REMARK  106  A    between atoms: _257  and  _258
REMARK  107  A    between atoms: _257  and  _260
REMARK  108  A    between atoms: _260  and  _261
REMARK  109  A    between atoms: _261  and  _262
REMARK  110  A    between atoms: _262  and  _263
REMARK  111  A    between atoms: _272  and  _274
REMARK  112  A    between atoms: _274  and  _275
REMARK  113  A    between atoms: _274  and  _277
REMARK  114  A    between atoms: _277  and  _278
REMARK  115  A    between atoms: _283  and  _285
REMARK  116  A    between atoms: _285  and  _286
REMARK  117  A    between atoms: _285  and  _288
REMARK  118  A    between atoms: _288  and  _289
REMARK  119  A    between atoms: _289  and  _290
REMARK  120  A    between atoms: _290  and  _291
REMARK  121  A    between atoms: _300  and  _302
REMARK  122  A    between atoms: _302  and  _303
REMARK  123  A    between atoms: _302  and  _305
REMARK  124  A    between atoms: _305  and  _306
REMARK  125  A    between atoms: _309  and  _311
REMARK  126  A    between atoms: _311  and  _312
REMARK  127  A    between atoms: _311  and  _314
REMARK  128  A    between atoms: _314  and  _315
REMARK  129  A    between atoms: _318  and  _320
REMARK  130  A    between atoms: _320  and  _321
REMARK  131  A    between atoms: _320  and  _323
REMARK  132  A    between atoms: _323  and  _324
REMARK  133  A    between atoms: _327  and  _329
REMARK  134  A    between atoms: _329  and  _330
REMARK  135  A    between atoms: _329  and  _332
REMARK  136  A    between atoms: _332  and  _333
REMARK  137  A    between atoms: _336  and  _338
REMARK  138  A    between atoms: _338  and  _339
REMARK  139  A    between atoms: _341  and  _343
REMARK  140  A    between atoms: _343  and  _344
REMARK  141  A    between atoms: _347  and  _349
REMARK  142  A    between atoms: _349  and  _350
REMARK  143  A    between atoms: _349  and  _352
REMARK  144  A    between atoms: _352  and  _353
REMARK  145  A    between atoms: _356  and  _358
REMARK  146  A    between atoms: _358  and  _359
REMARK  147  A    between atoms: _358  and  _361
REMARK  148  A    between atoms: _361  and  _362
REMARK  149  A    between atoms: _365  and  _367
REMARK  150  A    between atoms: _367  and  _368
REMARK  151  A    between atoms: _367  and  _370
REMARK  152  A    between atoms: _370  and  _371
REMARK  153  A    between atoms: _374  and  _376
REMARK  154  A    between atoms: _376  and  _377
REMARK  155  A    between atoms: _376  and  _379
REMARK  156  A    between atoms: _382  and  _384
REMARK  157  A    between atoms: _384  and  _385
REMARK  158  A    between atoms: _384  and  _387
REMARK  159  A    between atoms: _387  and  _388
REMARK  160  A    between atoms: _388  and  _389
REMARK  161  A    between atoms: _389  and  _390
REMARK  162  A    between atoms: _390  and  _391
REMARK  163  A    between atoms: _395  and  _397
REMARK  164  A    between atoms: _397  and  _398
REMARK  165  A    between atoms: _397  and  _400
REMARK  166  A    between atoms: _400  and  _401
REMARK  167  A    between atoms: _401  and  _402
REMARK  168  A    between atoms: _404  and  _406
REMARK  169  A    between atoms: _406  and  _407
REMARK  170  A    between atoms: _406  and  _409
REMARK  171  A    between atoms: _409  and  _410
REMARK  172  A    between atoms: _413  and  _415
REMARK  173  A    between atoms: _415  and  _416
REMARK  174  A    between atoms: _418  and  _420
REMARK  175  A    between atoms: _420  and  _421
REMARK  176  A    between atoms: _423  and  _425
REMARK  177  A    between atoms: _425  and  _426
REMARK  178  A    between atoms: _425  and  _428
REMARK  179  A    between atoms: _428  and  _429
REMARK  180  A    between atoms: _432  and  _434
REMARK  181  A    between atoms: _434  and  _435
REMARK  182  A    between atoms: _437  and  _439
REMARK  183  A    between atoms: _439  and  _440
REMARK  184  A    between atoms: _442  and  _444
REMARK  185  A    between atoms: _444  and  _445
REMARK  186  A    between atoms: _444  and  _447
REMARK  187  A    between atoms: _447  and  _448
REMARK  188  A    between atoms: _454  and  _456
REMARK  189  A    between atoms: _456  and  _457
REMARK  190  A    between atoms: _456  and  _459
REMARK  191  A    between atoms: _459  and  _460
REMARK  192  A    between atoms: _463  and  _465
REMARK  193  A    between atoms: _465  and  _466
REMARK  194  A    between atoms: _465  and  _468
REMARK  195  A    between atoms: _471  and  _473
REMARK  196  A    between atoms: _473  and  _474
REMARK  197  A    between atoms: _473  and  _476
REMARK  198  A    between atoms: _476  and  _477
REMARK  199  A    between atoms: _481  and  _482
REMARK  200  A    between atoms: _487  and  _489
REMARK  201  A    between atoms: _489  and  _490
REMARK  202  A    between atoms: _489  and  _492
REMARK  203  A    between atoms: _492  and  _493
REMARK  204  A    between atoms: _497  and  _498
REMARK  205  A    between atoms: _503  and  _505
REMARK  206  A    between atoms: _505  and  _506
REMARK  207  A    between atoms: _505  and  _508
REMARK  208  A    between atoms: _511  and  _513
REMARK  209  A    between atoms: _513  and  _514
REMARK  210  A    between atoms: _513  and  _516
REMARK  211  A    between atoms: _516  and  _517
REMARK  212  A    between atoms: _522  and  _524
REMARK  213  A    between atoms: _524  and  _525
REMARK  214  A    between atoms: _524  and  _527
REMARK  215  A    between atoms: _527  and  _528
REMARK  216  A    between atoms: _531  and  _533
REMARK  217  A    between atoms: _533  and  _534
REMARK  218  A    between atoms: _533  and  _536
REMARK  219  A    between atoms: _536  and  _537
REMARK  220  A    between atoms: _540  and  _542
REMARK  221  A    between atoms: _542  and  _543
REMARK  222  A    between atoms: _545  and  _547
REMARK  223  A    between atoms: _547  and  _548
REMARK  224  A    between atoms: _547  and  _550
REMARK  225  A    between atoms: _550  and  _551
REMARK  226  A    between atoms: _551  and  _552
REMARK  227  A    between atoms: _552  and  _553
REMARK                            x       y       z     vdW  Elec       q    Type
REMARK                         _______ _______ _______ _____ _____    ______ ____
ROOT
ATOM      1  O   HOH     1      19.261  -6.054 -10.019  0.00  0.00    +0.000 OA
ENDROOT
TORSDOF 0
REMARK  Name = ../refined-set-2016/2p3b/2p3b_pocket.pdb
REMARK  227 active torsions:
REMARK  status: ('A' for Active; 'I' for Inactive)
REMARK    1  A    between atoms: _1  and  _3
REMARK    2  A    between atoms: _3  and  _4
REMARK    3  A    between atoms: _3  and  _6
REMARK    4  A    between atoms: _6  and  _7
REMARK    5  A    between atoms: _7  and  _8
REMARK    6  A    between atoms: _8  and  _9
REMARK    7  A    between atoms: _18  and  _20
REMARK    8  A    between atoms: _20  and  _21
REMARK    9  A    between atoms: _20  and  _23
REMARK   10  A    between atoms: _23  and  _24
REMARK   11  A    between atoms: _27  and  _29
REMARK   12  A    between atoms: _29  and  _30
REMARK   13  A    between atoms: _29  and  _32
REMARK   14  A    between atoms: _32  and  _33
REMARK   15  A    between atoms: _36  and  _38
REMARK   16  A    between atoms: _38  and  _39
REMARK   17  A    between atoms: _38  and  _41
REMARK   18  A    between atoms: _41  and  _42
REMARK   19  A    between atoms: _45  and  _47
REMARK   20  A    between atoms: _47  and  _48
REMARK   21  A    between atoms: _47  and  _50
REMARK   22  A    between atoms: _50  and  _51
REMARK   23  A    between atoms: _54  and  _56
REMARK   24  A    between atoms: _56  and  _57
REMARK   25  A    between atoms: _59  and  _61
REMARK   26  A    between atoms: _61  and  _62
REMARK   27  A    between atoms: _65  and  _67
REMARK   28  A    between atoms: _67  and  _68
REMARK   29  A    between atoms: _67  and  _70
REMARK   30  A    between atoms: _70  and  _71
REMARK   31  A    between atoms: _74  and  _76
REMARK   32  A    between atoms: _76  and  _77
REMARK   33  A    between atoms: _76  and  _79
REMARK   34  A    between atoms: _79  and  _80
REMARK   35  A    between atoms: _83  and  _85
REMARK   36  A    between atoms: _85  and  _86
REMARK   37  A    between atoms: _85  and  _88
REMARK   38  A    between atoms: _88  and  _89
REMARK   39  A    between atoms: _92  and  _94
REMARK   40  A    between atoms: _94  and  _95
REMARK   41  A    between atoms: _94  and  _97
REMARK   42  A    between atoms: _100  and  _102
REMARK   43  A    between atoms: _102  and  _103
REMARK   44  A    between atoms: _102  and  _105
REMARK   45  A    between atoms: _105  and  _106
REMARK   46  A    between atoms: _106  and  _107
REMARK   47  A    between atoms: _107  and  _108
REMARK   48  A    between atoms: _108  and  _109
REMARK   49  A    between atoms: _113  and  _115
REMARK   50  A    between atoms: _115  and  _116
REMARK   51  A    between atoms: _115  and  _118
REMARK   52  A    between atoms: _118  and  _119
REMARK   53  A    between atoms: _119  and  _120
REMARK   54  A    between atoms: _122  and  _124
REMARK   55  A    between atoms: _124  and  _125
REMARK   56  A    between atoms: _124  and  _127
REMARK   57  A    between atoms: _127  and  _128
REMARK   58  A    between atoms: _131  and  _133
REMARK   59  A    between atoms: _133  and  _134
REMARK   60  A    between atoms: _136  and  _138
REMARK   61  A    between atoms: _138  and  _139
REMARK   62  A    between atoms: _141  and  _143
REMARK   63  A    between atoms: _143  and  _144
REMARK   64  A    between atoms: _143  and  _146
REMARK   65  A    between atoms: _146  and  _147
REMARK   66  A    between atoms: _150  and  _152
REMARK   67  A    between atoms: _152  and  _153
REMARK   68  A    between atoms: _155  and  _157
REMARK   69  A    between atoms: _157  and  _158
REMARK   70  A    between atoms: _160  and  _162
REMARK   71  A    between atoms: _162  and  _163
REMARK   72  A    between atoms: _162  and  _165
REMARK   73  A    between atoms: _165  and  _166
REMARK   74  A    between atoms: _172  and  _174
REMARK   75  A    between atoms: _174  and  _175
REMARK   76  A    between atoms: _174  and  _177
REMARK   77  A    between atoms: _177  and  _178
REMARK   78  A    between atoms: _181  and  _183
REMARK   79  A    between atoms: _183  and  _184
REMARK   80  A    between atoms: _183  and  _186
REMARK   81  A    between atoms: _186  and  _187
REMARK   82  A    between atoms: _191  and  _192
REMARK   83  A    between atoms: _197  and  _199
REMARK   84  A    between atoms: _199  and  _200
REMARK   85  A    between atoms: _199  and  _202
REMARK   86  A    between atoms: _202  and  _203
REMARK   87  A    between atoms: _207  and  _208
REMARK   88  A    between atoms: _213  and  _215
REMARK   89  A    between atoms: _215  and  _216
REMARK   90  A    between atoms: _215  and  _218
REMARK   91  A    between atoms: _221  and  _223
REMARK   92  A    between atoms: _223  and  _224
REMARK   93  A    between atoms: _223  and  _226
REMARK   94  A    between atoms: _226  and  _227
REMARK   95  A    between atoms: _232  and  _234
REMARK   96  A    between atoms: _234  and  _235
REMARK   97  A    between atoms: _234  and  _237
REMARK   98  A    between atoms: _237  and  _238
REMARK   99  A    between atoms: _241  and  _243
REMARK  100  A    between atoms: _243  and  _244
REMARK  101  A    between atoms: _243  and  _246
REMARK  102  A    between atoms: _246  and  _247
REMARK  103  A    between atoms: _250  and  _252
REMARK  104  A    between atoms: _252  and  _253
REMARK  105  A    between atoms: _255  and  _257
REMARK  106  A    between atoms: _257  and  _258
REMARK  107  A    between atoms: _257  and  _260
REMARK  108  A    between atoms: _260  and  _261
REMARK  109  A    between atoms: _261  and  _262
REMARK  110  A    between atoms: _262  and  _263
REMARK  111  A    between atoms: _272  and  _274
REMARK  112  A    between atoms: _274  and  _275
REMARK  113  A    between atoms: _274  and  _277
REMARK  114  A    between atoms: _277  and  _278
REMARK  115  A    between atoms: _283  and  _285
REMARK  116  A    between atoms: _285  and  _286
REMARK  117  A    between atoms: _285  and  _288
REMARK  118  A    between atoms: _288  and  _289
REMARK  119  A    between atoms: _289  and  _290
REMARK  120  A    between atoms: _290  and  _291
REMARK  121  A    between atoms: _300  and  _302
REMARK  122  A    between atoms: _302  and  _303
REMARK  123  A    between atoms: _302  and  _305
REMARK  124  A    between atoms: _305  and  _306
REMARK  125  A    between atoms: _309  and  _311
REMARK  126  A    between atoms: _311  and  _312
REMARK  127  A    between atoms: _311  and  _314
REMARK  128  A    between atoms: _314  and  _315
REMARK  129  A    between atoms: _318  and  _320
REMARK  130  A    between atoms: _320  and  _321
REMARK  131  A    between atoms: _320  and  _323
REMARK  132  A    between atoms: _323  and  _324
REMARK  133  A    between atoms: _327  and  _329
REMARK  134  A    between atoms: _329  and  _330
REMARK  135  A    between atoms: _329  and  _332
REMARK  136  A    between atoms: _332  and  _333
REMARK  137  A    between atoms: _336  and  _338
REMARK  138  A    between atoms: _338  and  _339
REMARK  139  A    between atoms: _341  and  _343
REMARK  140  A    between atoms: _343  and  _344
REMARK  141  A    between atoms: _347  and  _349
REMARK  142  A    between atoms: _349  and  _350
REMARK  143  A    between atoms: _349  and  _352
REMARK  144  A    between atoms: _352  and  _353
REMARK  145  A    between atoms: _356  and  _358
REMARK  146  A    between atoms: _358  and  _359
REMARK  147  A    between atoms: _358  and  _361
REMARK  148  A    between atoms: _361  and  _362
REMARK  149  A    between atoms: _365  and  _367
REMARK  150  A    between atoms: _367  and  _368
REMARK  151  A    between atoms: _367  and  _370
REMARK  152  A    between atoms: _370  and  _371
REMARK  153  A    between atoms: _374  and  _376
REMARK  154  A    between atoms: _376  and  _377
REMARK  155  A    between atoms: _376  and  _379
REMARK  156  A    between atoms: _382  and  _384
REMARK  157  A    between atoms: _384  and  _385
REMARK  158  A    between atoms: _384  and  _387
REMARK  159  A    between atoms: _387  and  _388
REMARK  160  A    between atoms: _388  and  _389
REMARK  161  A    between atoms: _389  and  _390
REMARK  162  A    between atoms: _390  and  _391
REMARK  163  A    between atoms: _395  and  _397
REMARK  164  A    between atoms: _397  and  _398
REMARK  165  A    between atoms: _397  and  _400
REMARK  166  A    between atoms: _400  and  _401
REMARK  167  A    between atoms: _401  and  _402
REMARK  168  A    between atoms: _404  and  _406
REMARK  169  A    between atoms: _406  and  _407
REMARK  170  A    between atoms: _406  and  _409
REMARK  171  A    between atoms: _409  and  _410
REMARK  172  A    between atoms: _413  and  _415
REMARK  173  A    between atoms: _415  and  _416
REMARK  174  A    between atoms: _418  and  _420
REMARK  175  A    between atoms: _420  and  _421
REMARK  176  A    between atoms: _423  and  _425
REMARK  177  A    between atoms: _425  and  _426
REMARK  178  A    between atoms: _425  and  _428
REMARK  179  A    between atoms: _428  and  _429
REMARK  180  A    between atoms: _432  and  _434
REMARK  181  A    between atoms: _434  and  _435
REMARK  182  A    between atoms: _437  and  _439
REMARK  183  A    between atoms: _439  and  _440
REMARK  184  A    between atoms: _442  and  _444
REMARK  185  A    between atoms: _444  and  _445
REMARK  186  A    between atoms: _444  and  _447
REMARK  187  A    between atoms: _447  and  _448
REMARK  188  A    between atoms: _454  and  _456
REMARK  189  A    between atoms: _456  and  _457
REMARK  190  A    between atoms: _456  and  _459
REMARK  191  A    between atoms: _459  and  _460
REMARK  192  A    between atoms: _463  and  _465
REMARK  193  A    between atoms: _465  and  _466
REMARK  194  A    between atoms: _465  and  _468
REMARK  195  A    between atoms: _471  and  _473
REMARK  196  A    between atoms: _473  and  _474
REMARK  197  A    between atoms: _473  and  _476
REMARK  198  A    between atoms: _476  and  _477
REMARK  199  A    between atoms: _481  and  _482
REMARK  200  A    between atoms: _487  and  _489
REMARK  201  A    between atoms: _489  and  _490
REMARK  202  A    between atoms: _489  and  _492
REMARK  203  A    between atoms: _492  and  _493
REMARK  204  A    between atoms: _497  and  _498
REMARK  205  A    between atoms: _503  and  _505
REMARK  206  A    between atoms: _505  and  _506
REMARK  207  A    between atoms: _505  and  _508
REMARK  208  A    between atoms: _511  and  _513
REMARK  209  A    between atoms: _513  and  _514
REMARK  210  A    between atoms: _513  and  _516
REMARK  211  A    between atoms: _516  and  _517
REMARK  212  A    between atoms: _522  and  _524
REMARK  213  A    between atoms: _524  and  _525
REMARK  214  A    between atoms: _524  and  _527
REMARK  215  A    between atoms: _527  and  _528
REMARK  216  A    between atoms: _531  and  _533
REMARK  217  A    between atoms: _533  and  _534
REMARK  218  A    between atoms: _533  and  _536
REMARK  219  A    between atoms: _536  and  _537
REMARK  220  A    between atoms: _540  and  _542
REMARK  221  A    between atoms: _542  and  _543
REMARK  222  A    between atoms: _545  and  _547
REMARK  223  A    between atoms: _547  and  _548
REMARK  224  A    between atoms: _547  and  _550
REMARK  225  A    between atoms: _550  and  _551
REMARK  226  A    between atoms: _551  and  _552
REMARK  227  A    between atoms: _552  and  _553
REMARK                            x       y       z     vdW  Elec       q    Type
REMARK                         _______ _______ _______ _____ _____    ______ ____
ROOT
ATOM      1  O   HOH     1      21.969  -5.409  -3.780  0.00  0.00    +0.000 OA
ENDROOT
TORSDOF 0
REMARK  Name = ../refined-set-2016/2p3b/2p3b_pocket.pdb
REMARK  227 active torsions:
REMARK  status: ('A' for Active; 'I' for Inactive)
REMARK    1  A    between atoms: _1  and  _3
REMARK    2  A    between atoms: _3  and  _4
REMARK    3  A    between atoms: _3  and  _6
REMARK    4  A    between atoms: _6  and  _7
REMARK    5  A    between atoms: _7  and  _8
REMARK    6  A    between atoms: _8  and  _9
REMARK    7  A    between atoms: _18  and  _20
REMARK    8  A    between atoms: _20  and  _21
REMARK    9  A    between atoms: _20  and  _23
REMARK   10  A    between atoms: _23  and  _24
REMARK   11  A    between atoms: _27  and  _29
REMARK   12  A    between atoms: _29  and  _30
REMARK   13  A    between atoms: _29  and  _32
REMARK   14  A    between atoms: _32  and  _33
REMARK   15  A    between atoms: _36  and  _38
REMARK   16  A    between atoms: _38  and  _39
REMARK   17  A    between atoms: _38  and  _41
REMARK   18  A    between atoms: _41  and  _42
REMARK   19  A    between atoms: _45  and  _47
REMARK   20  A    between atoms: _47  and  _48
REMARK   21  A    between atoms: _47  and  _50
REMARK   22  A    between atoms: _50  and  _51
REMARK   23  A    between atoms: _54  and  _56
REMARK   24  A    between atoms: _56  and  _57
REMARK   25  A    between atoms: _59  and  _61
REMARK   26  A    between atoms: _61  and  _62
REMARK   27  A    between atoms: _65  and  _67
REMARK   28  A    between atoms: _67  and  _68
REMARK   29  A    between atoms: _67  and  _70
REMARK   30  A    between atoms: _70  and  _71
REMARK   31  A    between atoms: _74  and  _76
REMARK   32  A    between atoms: _76  and  _77
REMARK   33  A    between atoms: _76  and  _79
REMARK   34  A    between atoms: _79  and  _80
REMARK   35  A    between atoms: _83  and  _85
REMARK   36  A    between atoms: _85  and  _86
REMARK   37  A    between atoms: _85  and  _88
REMARK   38  A    between atoms: _88  and  _89
REMARK   39  A    between atoms: _92  and  _94
REMARK   40  A    between atoms: _94  and  _95
REMARK   41  A    between atoms: _94  and  _97
REMARK   42  A    between atoms: _100  and  _102
REMARK   43  A    between atoms: _102  and  _103
REMARK   44  A    between atoms: _102  and  _105
REMARK   45  A    between atoms: _105  and  _106
REMARK   46  A    between atoms: _106  and  _107
REMARK   47  A    between atoms: _107  and  _108
REMARK   48  A    between atoms: _108  and  _109
REMARK   49  A    between atoms: _113  and  _115
REMARK   50  A    between atoms: _115  and  _116
REMARK   51  A    between atoms: _115  and  _118
REMARK   52  A    between atoms: _118  and  _119
REMARK   53  A    between atoms: _119  and  _120
REMARK   54  A    between atoms: _122  and  _124
REMARK   55  A    between atoms: _124  and  _125
REMARK   56  A    between atoms: _124  and  _127
REMARK   57  A    between atoms: _127  and  _128
REMARK   58  A    between atoms: _131  and  _133
REMARK   59  A    between atoms: _133  and  _134
REMARK   60  A    between atoms: _136  and  _138
REMARK   61  A    between atoms: _138  and  _139
REMARK   62  A    between atoms: _141  and  _143
REMARK   63  A    between atoms: _143  and  _144
REMARK   64  A    between atoms: _143  and  _146
REMARK   65  A    between atoms: _146  and  _147
REMARK   66  A    between atoms: _150  and  _152
REMARK   67  A    between atoms: _152  and  _153
REMARK   68  A    between atoms: _155  and  _157
REMARK   69  A    between atoms: _157  and  _158
REMARK   70  A    between atoms: _160  and  _162
REMARK   71  A    between atoms: _162  and  _163
REMARK   72  A    between atoms: _162  and  _165
REMARK   73  A    between atoms: _165  and  _166
REMARK   74  A    between atoms: _172  and  _174
REMARK   75  A    between atoms: _174  and  _175
REMARK   76  A    between atoms: _174  and  _177
REMARK   77  A    between atoms: _177  and  _178
REMARK   78  A    between atoms: _181  and  _183
REMARK   79  A    between atoms: _183  and  _184
REMARK   80  A    between atoms: _183  and  _186
REMARK   81  A    between atoms: _186  and  _187
REMARK   82  A    between atoms: _191  and  _192
REMARK   83  A    between atoms: _197  and  _199
REMARK   84  A    between atoms: _199  and  _200
REMARK   85  A    between atoms: _199  and  _202
REMARK   86  A    between atoms: _202  and  _203
REMARK   87  A    between atoms: _207  and  _208
REMARK   88  A    between atoms: _213  and  _215
REMARK   89  A    between atoms: _215  and  _216
REMARK   90  A    between atoms: _215  and  _218
REMARK   91  A    between atoms: _221  and  _223
REMARK   92  A    between atoms: _223  and  _224
REMARK   93  A    between atoms: _223  and  _226
REMARK   94  A    between atoms: _226  and  _227
REMARK   95  A    between atoms: _232  and  _234
REMARK   96  A    between atoms: _234  and  _235
REMARK   97  A    between atoms: _234  and  _237
REMARK   98  A    between atoms: _237  and  _238
REMARK   99  A    between atoms: _241  and  _243
REMARK  100  A    between atoms: _243  and  _244
REMARK  101  A    between atoms: _243  and  _246
REMARK  102  A    between atoms: _246  and  _247
REMARK  103  A    between atoms: _250  and  _252
REMARK  104  A    between atoms: _252  and  _253
REMARK  105  A    between atoms: _255  and  _257
REMARK  106  A    between atoms: _257  and  _258
REMARK  107  A    between atoms: _257  and  _260
REMARK  108  A    between atoms: _260  and  _261
REMARK  109  A    between atoms: _261  and  _262
REMARK  110  A    between atoms: _262  and  _263
REMARK  111  A    between atoms: _272  and  _274
REMARK  112  A    between atoms: _274  and  _275
REMARK  113  A    between atoms: _274  and  _277
REMARK  114  A    between atoms: _277  and  _278
REMARK  115  A    between atoms: _283  and  _285
REMARK  116  A    between atoms: _285  and  _286
REMARK  117  A    between atoms: _285  and  _288
REMARK  118  A    between atoms: _288  and  _289
REMARK  119  A    between atoms: _289  and  _290
REMARK  120  A    between atoms: _290  and  _291
REMARK  121  A    between atoms: _300  and  _302
REMARK  122  A    between atoms: _302  and  _303
REMARK  123  A    between atoms: _302  and  _305
REMARK  124  A    between atoms: _305  and  _306
REMARK  125  A    between atoms: _309  and  _311
REMARK  126  A    between atoms: _311  and  _312
REMARK  127  A    between atoms: _311  and  _314
REMARK  128  A    between atoms: _314  and  _315
REMARK  129  A    between atoms: _318  and  _320
REMARK  130  A    between atoms: _320  and  _321
REMARK  131  A    between atoms: _320  and  _323
REMARK  132  A    between atoms: _323  and  _324
REMARK  133  A    between atoms: _327  and  _329
REMARK  134  A    between atoms: _329  and  _330
REMARK  135  A    between atoms: _329  and  _332
REMARK  136  A    between atoms: _332  and  _333
REMARK  137  A    between atoms: _336  and  _338
REMARK  138  A    between atoms: _338  and  _339
REMARK  139  A    between atoms: _341  and  _343
REMARK  140  A    between atoms: _343  and  _344
REMARK  141  A    between atoms: _347  and  _349
REMARK  142  A    between atoms: _349  and  _350
REMARK  143  A    between atoms: _349  and  _352
REMARK  144  A    between atoms: _352  and  _353
REMARK  145  A    between atoms: _356  and  _358
REMARK  146  A    between atoms: _358  and  _359
REMARK  147  A    between atoms: _358  and  _361
REMARK  148  A    between atoms: _361  and  _362
REMARK  149  A    between atoms: _365  and  _367
REMARK  150  A    between atoms: _367  and  _368
REMARK  151  A    between atoms: _367  and  _370
REMARK  152  A    between atoms: _370  and  _371
REMARK  153  A    between atoms: _374  and  _376
REMARK  154  A    between atoms: _376  and  _377
REMARK  155  A    between atoms: _376  and  _379
REMARK  156  A    between atoms: _382  and  _384
REMARK  157  A    between atoms: _384  and  _385
REMARK  158  A    between atoms: _384  and  _387
REMARK  159  A    between atoms: _387  and  _388
REMARK  160  A    between atoms: _388  and  _389
REMARK  161  A    between atoms: _389  and  _390
REMARK  162  A    between atoms: _390  and  _391
REMARK  163  A    between atoms: _395  and  _397
REMARK  164  A    between atoms: _397  and  _398
REMARK  165  A    between atoms: _397  and  _400
REMARK  166  A    between atoms: _400  and  _401
REMARK  167  A    between atoms: _401  and  _402
REMARK  168  A    between atoms: _404  and  _406
REMARK  169  A    between atoms: _406  and  _407
REMARK  170  A    between atoms: _406  and  _409
REMARK  171  A    between atoms: _409  and  _410
REMARK  172  A    between atoms: _413  and  _415
REMARK  173  A    between atoms: _415  and  _416
REMARK  174  A    between atoms: _418  and  _420
REMARK  175  A    between atoms: _420  and  _421
REMARK  176  A    between atoms: _423  and  _425
REMARK  177  A    between atoms: _425  and  _426
REMARK  178  A    between atoms: _425  and  _428
REMARK  179  A    between atoms: _428  and  _429
REMARK  180  A    between atoms: _432  and  _434
REMARK  181  A    between atoms: _434  and  _435
REMARK  182  A    between atoms: _437  and  _439
REMARK  183  A    between atoms: _439  and  _440
REMARK  184  A    between atoms: _442  and  _444
REMARK  185  A    between atoms: _444  and  _445
REMARK  186  A    between atoms: _444  and  _447
REMARK  187  A    between atoms: _447  and  _448
REMARK  188  A    between atoms: _454  and  _456
REMARK  189  A    between atoms: _456  and  _457
REMARK  190  A    between atoms: _456  and  _459
REMARK  191  A    between atoms: _459  and  _460
REMARK  192  A    between atoms: _463  and  _465
REMARK  193  A    between atoms: _465  and  _466
REMARK  194  A    between atoms: _465  and  _468
REMARK  195  A    between atoms: _471  and  _473
REMARK  196  A    between atoms: _473  and  _474
REMARK  197  A    between atoms: _473  and  _476
REMARK  198  A    between atoms: _476  and  _477
REMARK  199  A    between atoms: _481  and  _482
REMARK  200  A    between atoms: _487  and  _489
REMARK  201  A    between atoms: _489  and  _490
REMARK  202  A    between atoms: _489  and  _492
REMARK  203  A    between atoms: _492  and  _493
REMARK  204  A    between atoms: _497  and  _498
REMARK  205  A    between atoms: _503  and  _505
REMARK  206  A    between atoms: _505  and  _506
REMARK  207  A    between atoms: _505  and  _508
REMARK  208  A    between atoms: _511  and  _513
REMARK  209  A    between atoms: _513  and  _514
REMARK  210  A    between atoms: _513  and  _516
REMARK  211  A    between atoms: _516  and  _517
REMARK  212  A    between atoms: _522  and  _524
REMARK  213  A    between atoms: _524  and  _525
REMARK  214  A    between atoms: _524  and  _527
REMARK  215  A    between atoms: _527  and  _528
REMARK  216  A    between atoms: _531  and  _533
REMARK  217  A    between atoms: _533  and  _534
REMARK  218  A    between atoms: _533  and  _536
REMARK  219  A    between atoms: _536  and  _537
REMARK  220  A    between atoms: _540  and  _542
REMARK  221  A    between atoms: _542  and  _543
REMARK  222  A    between atoms: _545  and  _547
REMARK  223  A    between atoms: _547  and  _548
REMARK  224  A    between atoms: _547  and  _550
REMARK  225  A    between atoms: _550  and  _551
REMARK  226  A    between atoms: _551  and  _552
REMARK  227  A    between atoms: _552  and  _553
REMARK                            x       y       z     vdW  Elec       q    Type
REMARK                         _______ _______ _______ _____ _____    ______ ____
ROOT
ATOM      1  O   HOH     1      12.346  -4.405 -13.243  0.00  0.00    +0.000 OA
ENDROOT
TORSDOF 0
REMARK  Name = ../refined-set-2016/2p3b/2p3b_pocket.pdb
REMARK  227 active torsions:
REMARK  status: ('A' for Active; 'I' for Inactive)
REMARK    1  A    between atoms: _1  and  _3
REMARK    2  A    between atoms: _3  and  _4
REMARK    3  A    between atoms: _3  and  _6
REMARK    4  A    between atoms: _6  and  _7
REMARK    5  A    between atoms: _7  and  _8
REMARK    6  A    between atoms: _8  and  _9
REMARK    7  A    between atoms: _18  and  _20
REMARK    8  A    between atoms: _20  and  _21
REMARK    9  A    between atoms: _20  and  _23
REMARK   10  A    between atoms: _23  and  _24
REMARK   11  A    between atoms: _27  and  _29
REMARK   12  A    between atoms: _29  and  _30
REMARK   13  A    between atoms: _29  and  _32
REMARK   14  A    between atoms: _32  and  _33
REMARK   15  A    between atoms: _36  and  _38
REMARK   16  A    between atoms: _38  and  _39
REMARK   17  A    between atoms: _38  and  _41
REMARK   18  A    between atoms: _41  and  _42
REMARK   19  A    between atoms: _45  and  _47
REMARK   20  A    between atoms: _47  and  _48
REMARK   21  A    between atoms: _47  and  _50
REMARK   22  A    between atoms: _50  and  _51
REMARK   23  A    between atoms: _54  and  _56
REMARK   24  A    between atoms: _56  and  _57
REMARK   25  A    between atoms: _59  and  _61
REMARK   26  A    between atoms: _61  and  _62
REMARK   27  A    between atoms: _65  and  _67
REMARK   28  A    between atoms: _67  and  _68
REMARK   29  A    between atoms: _67  and  _70
REMARK   30  A    between atoms: _70  and  _71
REMARK   31  A    between atoms: _74  and  _76
REMARK   32  A    between atoms: _76  and  _77
REMARK   33  A    between atoms: _76  and  _79
REMARK   34  A    between atoms: _79  and  _80
REMARK   35  A    between atoms: _83  and  _85
REMARK   36  A    between atoms: _85  and  _86
REMARK   37  A    between atoms: _85  and  _88
REMARK   38  A    between atoms: _88  and  _89
REMARK   39  A    between atoms: _92  and  _94
REMARK   40  A    between atoms: _94  and  _95
REMARK   41  A    between atoms: _94  and  _97
REMARK   42  A    between atoms: _100  and  _102
REMARK   43  A    between atoms: _102  and  _103
REMARK   44  A    between atoms: _102  and  _105
REMARK   45  A    between atoms: _105  and  _106
REMARK   46  A    between atoms: _106  and  _107
REMARK   47  A    between atoms: _107  and  _108
REMARK   48  A    between atoms: _108  and  _109
REMARK   49  A    between atoms: _113  and  _115
REMARK   50  A    between atoms: _115  and  _116
REMARK   51  A    between atoms: _115  and  _118
REMARK   52  A    between atoms: _118  and  _119
REMARK   53  A    between atoms: _119  and  _120
REMARK   54  A    between atoms: _122  and  _124
REMARK   55  A    between atoms: _124  and  _125
REMARK   56  A    between atoms: _124  and  _127
REMARK   57  A    between atoms: _127  and  _128
REMARK   58  A    between atoms: _131  and  _133
REMARK   59  A    between atoms: _133  and  _134
REMARK   60  A    between atoms: _136  and  _138
REMARK   61  A    between atoms: _138  and  _139
REMARK   62  A    between atoms: _141  and  _143
REMARK   63  A    between atoms: _143  and  _144
REMARK   64  A    between atoms: _143  and  _146
REMARK   65  A    between atoms: _146  and  _147
REMARK   66  A    between atoms: _150  and  _152
REMARK   67  A    between atoms: _152  and  _153
REMARK   68  A    between atoms: _155  and  _157
REMARK   69  A    between atoms: _157  and  _158
REMARK   70  A    between atoms: _160  and  _162
REMARK   71  A    between atoms: _162  and  _163
REMARK   72  A    between atoms: _162  and  _165
REMARK   73  A    between atoms: _165  and  _166
REMARK   74  A    between atoms: _172  and  _174
REMARK   75  A    between atoms: _174  and  _175
REMARK   76  A    between atoms: _174  and  _177
REMARK   77  A    between atoms: _177  and  _178
REMARK   78  A    between atoms: _181  and  _183
REMARK   79  A    between atoms: _183  and  _184
REMARK   80  A    between atoms: _183  and  _186
REMARK   81  A    between atoms: _186  and  _187
REMARK   82  A    between atoms: _191  and  _192
REMARK   83  A    between atoms: _197  and  _199
REMARK   84  A    between atoms: _199  and  _200
REMARK   85  A    between atoms: _199  and  _202
REMARK   86  A    between atoms: _202  and  _203
REMARK   87  A    between atoms: _207  and  _208
REMARK   88  A    between atoms: _213  and  _215
REMARK   89  A    between atoms: _215  and  _216
REMARK   90  A    between atoms: _215  and  _218
REMARK   91  A    between atoms: _221  and  _223
REMARK   92  A    between atoms: _223  and  _224
REMARK   93  A    between atoms: _223  and  _226
REMARK   94  A    between atoms: _226  and  _227
REMARK   95  A    between atoms: _232  and  _234
REMARK   96  A    between atoms: _234  and  _235
REMARK   97  A    between atoms: _234  and  _237
REMARK   98  A    between atoms: _237  and  _238
REMARK   99  A    between atoms: _241  and  _243
REMARK  100  A    between atoms: _243  and  _244
REMARK  101  A    between atoms: _243  and  _246
REMARK  102  A    between atoms: _246  and  _247
REMARK  103  A    between atoms: _250  and  _252
REMARK  104  A    between atoms: _252  and  _253
REMARK  105  A    between atoms: _255  and  _257
REMARK  106  A    between atoms: _257  and  _258
REMARK  107  A    between atoms: _257  and  _260
REMARK  108  A    between atoms: _260  and  _261
REMARK  109  A    between atoms: _261  and  _262
REMARK  110  A    between atoms: _262  and  _263
REMARK  111  A    between atoms: _272  and  _274
REMARK  112  A    between atoms: _274  and  _275
REMARK  113  A    between atoms: _274  and  _277
REMARK  114  A    between atoms: _277  and  _278
REMARK  115  A    between atoms: _283  and  _285
REMARK  116  A    between atoms: _285  and  _286
REMARK  117  A    between atoms: _285  and  _288
REMARK  118  A    between atoms: _288  and  _289
REMARK  119  A    between atoms: _289  and  _290
REMARK  120  A    between atoms: _290  and  _291
REMARK  121  A    between atoms: _300  and  _302
REMARK  122  A    between atoms: _302  and  _303
REMARK  123  A    between atoms: _302  and  _305
REMARK  124  A    between atoms: _305  and  _306
REMARK  125  A    between atoms: _309  and  _311
REMARK  126  A    between atoms: _311  and  _312
REMARK  127  A    between atoms: _311  and  _314
REMARK  128  A    between atoms: _314  and  _315
REMARK  129  A    between atoms: _318  and  _320
REMARK  130  A    between atoms: _320  and  _321
REMARK  131  A    between atoms: _320  and  _323
REMARK  132  A    between atoms: _323  and  _324
REMARK  133  A    between atoms: _327  and  _329
REMARK  134  A    between atoms: _329  and  _330
REMARK  135  A    between atoms: _329  and  _332
REMARK  136  A    between atoms: _332  and  _333
REMARK  137  A    between atoms: _336  and  _338
REMARK  138  A    between atoms: _338  and  _339
REMARK  139  A    between atoms: _341  and  _343
REMARK  140  A    between atoms: _343  and  _344
REMARK  141  A    between atoms: _347  and  _349
REMARK  142  A    between atoms: _349  and  _350
REMARK  143  A    between atoms: _349  and  _352
REMARK  144  A    between atoms: _352  and  _353
REMARK  145  A    between atoms: _356  and  _358
REMARK  146  A    between atoms: _358  and  _359
REMARK  147  A    between atoms: _358  and  _361
REMARK  148  A    between atoms: _361  and  _362
REMARK  149  A    between atoms: _365  and  _367
REMARK  150  A    between atoms: _367  and  _368
REMARK  151  A    between atoms: _367  and  _370
REMARK  152  A    between atoms: _370  and  _371
REMARK  153  A    between atoms: _374  and  _376
REMARK  154  A    between atoms: _376  and  _377
REMARK  155  A    between atoms: _376  and  _379
REMARK  156  A    between atoms: _382  and  _384
REMARK  157  A    between atoms: _384  and  _385
REMARK  158  A    between atoms: _384  and  _387
REMARK  159  A    between atoms: _387  and  _388
REMARK  160  A    between atoms: _388  and  _389
REMARK  161  A    between atoms: _389  and  _390
REMARK  162  A    between atoms: _390  and  _391
REMARK  163  A    between atoms: _395  and  _397
REMARK  164  A    between atoms: _397  and  _398
REMARK  165  A    between atoms: _397  and  _400
REMARK  166  A    between atoms: _400  and  _401
REMARK  167  A    between atoms: _401  and  _402
REMARK  168  A    between atoms: _404  and  _406
REMARK  169  A    between atoms: _406  and  _407
REMARK  170  A    between atoms: _406  and  _409
REMARK  171  A    between atoms: _409  and  _410
REMARK  172  A    between atoms: _413  and  _415
REMARK  173  A    between atoms: _415  and  _416
REMARK  174  A    between atoms: _418  and  _420
REMARK  175  A    between atoms: _420  and  _421
REMARK  176  A    between atoms: _423  and  _425
REMARK  177  A    between atoms: _425  and  _426
REMARK  178  A    between atoms: _425  and  _428
REMARK  179  A    between atoms: _428  and  _429
REMARK  180  A    between atoms: _432  and  _434
REMARK  181  A    between atoms: _434  and  _435
REMARK  182  A    between atoms: _437  and  _439
REMARK  183  A    between atoms: _439  and  _440
REMARK  184  A    between atoms: _442  and  _444
REMARK  185  A    between atoms: _444  and  _445
REMARK  186  A    between atoms: _444  and  _447
REMARK  187  A    between atoms: _447  and  _448
REMARK  188  A    between atoms: _454  and  _456
REMARK  189  A    between atoms: _456  and  _457
REMARK  190  A    between atoms: _456  and  _459
REMARK  191  A    between atoms: _459  and  _460
REMARK  192  A    between atoms: _463  and  _465
REMARK  193  A    between atoms: _465  and  _466
REMARK  194  A    between atoms: _465  and  _468
REMARK  195  A    between atoms: _471  and  _473
REMARK  196  A    between atoms: _473  and  _474
REMARK  197  A    between atoms: _473  and  _476
REMARK  198  A    between atoms: _476  and  _477
REMARK  199  A    between atoms: _481  and  _482
REMARK  200  A    between atoms: _487  and  _489
REMARK  201  A    between atoms: _489  and  _490
REMARK  202  A    between atoms: _489  and  _492
REMARK  203  A    between atoms: _492  and  _493
REMARK  204  A    between atoms: _497  and  _498
REMARK  205  A    between atoms: _503  and  _505
REMARK  206  A    between atoms: _505  and  _506
REMARK  207  A    between atoms: _505  and  _508
REMARK  208  A    between atoms: _511  and  _513
REMARK  209  A    between atoms: _513  and  _514
REMARK  210  A    between atoms: _513  and  _516
REMARK  211  A    between atoms: _516  and  _517
REMARK  212  A    between atoms: _522  and  _524
REMARK  213  A    between atoms: _524  and  _525
REMARK  214  A    between atoms: _524  and  _527
REMARK  215  A    between atoms: _527  and  _528
REMARK  216  A    between atoms: _531  and  _533
REMARK  217  A    between atoms: _533  and  _534
REMARK  218  A    between atoms: _533  and  _536
REMARK  219  A    between atoms: _536  and  _537
REMARK  220  A    between atoms: _540  and  _542
REMARK  221  A    between atoms: _542  and  _543
REMARK  222  A    between atoms: _545  and  _547
REMARK  223  A    between atoms: _547  and  _548
REMARK  224  A    between atoms: _547  and  _550
REMARK  225  A    between atoms: _550  and  _551
REMARK  226  A    between atoms: _551  and  _552
REMARK  227  A    between atoms: _552  and  _553
REMARK                            x       y       z     vdW  Elec       q    Type
REMARK                         _______ _______ _______ _____ _____    ______ ____
ROOT
ATOM      1  O   HOH     1      21.013  -4.068 -12.574  0.00  0.00    +0.000 OA
ENDROOT
TORSDOF 0
REMARK  Name = ../refined-set-2016/2p3b/2p3b_pocket.pdb
REMARK  227 active torsions:
REMARK  status: ('A' for Active; 'I' for Inactive)
REMARK    1  A    between atoms: _1  and  _3
REMARK    2  A    between atoms: _3  and  _4
REMARK    3  A    between atoms: _3  and  _6
REMARK    4  A    between atoms: _6  and  _7
REMARK    5  A    between atoms: _7  and  _8
REMARK    6  A    between atoms: _8  and  _9
REMARK    7  A    between atoms: _18  and  _20
REMARK    8  A    between atoms: _20  and  _21
REMARK    9  A    between atoms: _20  and  _23
REMARK   10  A    between atoms: _23  and  _24
REMARK   11  A    between atoms: _27  and  _29
REMARK   12  A    between atoms: _29  and  _30
REMARK   13  A    between atoms: _29  and  _32
REMARK   14  A    between atoms: _32  and  _33
REMARK   15  A    between atoms: _36  and  _38
REMARK   16  A    between atoms: _38  and  _39
REMARK   17  A    between atoms: _38  and  _41
REMARK   18  A    between atoms: _41  and  _42
REMARK   19  A    between atoms: _45  and  _47
REMARK   20  A    between atoms: _47  and  _48
REMARK   21  A    between atoms: _47  and  _50
REMARK   22  A    between atoms: _50  and  _51
REMARK   23  A    between atoms: _54  and  _56
REMARK   24  A    between atoms: _56  and  _57
REMARK   25  A    between atoms: _59  and  _61
REMARK   26  A    between atoms: _61  and  _62
REMARK   27  A    between atoms: _65  and  _67
REMARK   28  A    between atoms: _67  and  _68
REMARK   29  A    between atoms: _67  and  _70
REMARK   30  A    between atoms: _70  and  _71
REMARK   31  A    between atoms: _74  and  _76
REMARK   32  A    between atoms: _76  and  _77
REMARK   33  A    between atoms: _76  and  _79
REMARK   34  A    between atoms: _79  and  _80
REMARK   35  A    between atoms: _83  and  _85
REMARK   36  A    between atoms: _85  and  _86
REMARK   37  A    between atoms: _85  and  _88
REMARK   38  A    between atoms: _88  and  _89
REMARK   39  A    between atoms: _92  and  _94
REMARK   40  A    between atoms: _94  and  _95
REMARK   41  A    between atoms: _94  and  _97
REMARK   42  A    between atoms: _100  and  _102
REMARK   43  A    between atoms: _102  and  _103
REMARK   44  A    between atoms: _102  and  _105
REMARK   45  A    between atoms: _105  and  _106
REMARK   46  A    between atoms: _106  and  _107
REMARK   47  A    between atoms: _107  and  _108
REMARK   48  A    between atoms: _108  and  _109
REMARK   49  A    between atoms: _113  and  _115
REMARK   50  A    between atoms: _115  and  _116
REMARK   51  A    between atoms: _115  and  _118
REMARK   52  A    between atoms: _118  and  _119
REMARK   53  A    between atoms: _119  and  _120
REMARK   54  A    between atoms: _122  and  _124
REMARK   55  A    between atoms: _124  and  _125
REMARK   56  A    between atoms: _124  and  _127
REMARK   57  A    between atoms: _127  and  _128
REMARK   58  A    between atoms: _131  and  _133
REMARK   59  A    between atoms: _133  and  _134
REMARK   60  A    between atoms: _136  and  _138
REMARK   61  A    between atoms: _138  and  _139
REMARK   62  A    between atoms: _141  and  _143
REMARK   63  A    between atoms: _143  and  _144
REMARK   64  A    between atoms: _143  and  _146
REMARK   65  A    between atoms: _146  and  _147
REMARK   66  A    between atoms: _150  and  _152
REMARK   67  A    between atoms: _152  and  _153
REMARK   68  A    between atoms: _155  and  _157
REMARK   69  A    between atoms: _157  and  _158
REMARK   70  A    between atoms: _160  and  _162
REMARK   71  A    between atoms: _162  and  _163
REMARK   72  A    between atoms: _162  and  _165
REMARK   73  A    between atoms: _165  and  _166
REMARK   74  A    between atoms: _172  and  _174
REMARK   75  A    between atoms: _174  and  _175
REMARK   76  A    between atoms: _174  and  _177
REMARK   77  A    between atoms: _177  and  _178
REMARK   78  A    between atoms: _181  and  _183
REMARK   79  A    between atoms: _183  and  _184
REMARK   80  A    between atoms: _183  and  _186
REMARK   81  A    between atoms: _186  and  _187
REMARK   82  A    between atoms: _191  and  _192
REMARK   83  A    between atoms: _197  and  _199
REMARK   84  A    between atoms: _199  and  _200
REMARK   85  A    between atoms: _199  and  _202
REMARK   86  A    between atoms: _202  and  _203
REMARK   87  A    between atoms: _207  and  _208
REMARK   88  A    between atoms: _213  and  _215
REMARK   89  A    between atoms: _215  and  _216
REMARK   90  A    between atoms: _215  and  _218
REMARK   91  A    between atoms: _221  and  _223
REMARK   92  A    between atoms: _223  and  _224
REMARK   93  A    between atoms: _223  and  _226
REMARK   94  A    between atoms: _226  and  _227
REMARK   95  A    between atoms: _232  and  _234
REMARK   96  A    between atoms: _234  and  _235
REMARK   97  A    between atoms: _234  and  _237
REMARK   98  A    between atoms: _237  and  _238
REMARK   99  A    between atoms: _241  and  _243
REMARK  100  A    between atoms: _243  and  _244
REMARK  101  A    between atoms: _243  and  _246
REMARK  102  A    between atoms: _246  and  _247
REMARK  103  A    between atoms: _250  and  _252
REMARK  104  A    between atoms: _252  and  _253
REMARK  105  A    between atoms: _255  and  _257
REMARK  106  A    between atoms: _257  and  _258
REMARK  107  A    between atoms: _257  and  _260
REMARK  108  A    between atoms: _260  and  _261
REMARK  109  A    between atoms: _261  and  _262
REMARK  110  A    between atoms: _262  and  _263
REMARK  111  A    between atoms: _272  and  _274
REMARK  112  A    between atoms: _274  and  _275
REMARK  113  A    between atoms: _274  and  _277
REMARK  114  A    between atoms: _277  and  _278
REMARK  115  A    between atoms: _283  and  _285
REMARK  116  A    between atoms: _285  and  _286
REMARK  117  A    between atoms: _285  and  _288
REMARK  118  A    between atoms: _288  and  _289
REMARK  119  A    between atoms: _289  and  _290
REMARK  120  A    between atoms: _290  and  _291
REMARK  121  A    between atoms: _300  and  _302
REMARK  122  A    between atoms: _302  and  _303
REMARK  123  A    between atoms: _302  and  _305
REMARK  124  A    between atoms: _305  and  _306
REMARK  125  A    between atoms: _309  and  _311
REMARK  126  A    between atoms: _311  and  _312
REMARK  127  A    between atoms: _311  and  _314
REMARK  128  A    between atoms: _314  and  _315
REMARK  129  A    between atoms: _318  and  _320
REMARK  130  A    between atoms: _320  and  _321
REMARK  131  A    between atoms: _320  and  _323
REMARK  132  A    between atoms: _323  and  _324
REMARK  133  A    between atoms: _327  and  _329
REMARK  134  A    between atoms: _329  and  _330
REMARK  135  A    between atoms: _329  and  _332
REMARK  136  A    between atoms: _332  and  _333
REMARK  137  A    between atoms: _336  and  _338
REMARK  138  A    between atoms: _338  and  _339
REMARK  139  A    between atoms: _341  and  _343
REMARK  140  A    between atoms: _343  and  _344
REMARK  141  A    between atoms: _347  and  _349
REMARK  142  A    between atoms: _349  and  _350
REMARK  143  A    between atoms: _349  and  _352
REMARK  144  A    between atoms: _352  and  _353
REMARK  145  A    between atoms: _356  and  _358
REMARK  146  A    between atoms: _358  and  _359
REMARK  147  A    between atoms: _358  and  _361
REMARK  148  A    between atoms: _361  and  _362
REMARK  149  A    between atoms: _365  and  _367
REMARK  150  A    between atoms: _367  and  _368
REMARK  151  A    between atoms: _367  and  _370
REMARK  152  A    between atoms: _370  and  _371
REMARK  153  A    between atoms: _374  and  _376
REMARK  154  A    between atoms: _376  and  _377
REMARK  155  A    between atoms: _376  and  _379
REMARK  156  A    between atoms: _382  and  _384
REMARK  157  A    between atoms: _384  and  _385
REMARK  158  A    between atoms: _384  and  _387
REMARK  159  A    between atoms: _387  and  _388
REMARK  160  A    between atoms: _388  and  _389
REMARK  161  A    between atoms: _389  and  _390
REMARK  162  A    between atoms: _390  and  _391
REMARK  163  A    between atoms: _395  and  _397
REMARK  164  A    between atoms: _397  and  _398
REMARK  165  A    between atoms: _397  and  _400
REMARK  166  A    between atoms: _400  and  _401
REMARK  167  A    between atoms: _401  and  _402
REMARK  168  A    between atoms: _404  and  _406
REMARK  169  A    between atoms: _406  and  _407
REMARK  170  A    between atoms: _406  and  _409
REMARK  171  A    between atoms: _409  and  _410
REMARK  172  A    between atoms: _413  and  _415
REMARK  173  A    between atoms: _415  and  _416
REMARK  174  A    between atoms: _418  and  _420
REMARK  175  A    between atoms: _420  and  _421
REMARK  176  A    between atoms: _423  and  _425
REMARK  177  A    between atoms: _425  and  _426
REMARK  178  A    between atoms: _425  and  _428
REMARK  179  A    between atoms: _428  and  _429
REMARK  180  A    between atoms: _432  and  _434
REMARK  181  A    between atoms: _434  and  _435
REMARK  182  A    between atoms: _437  and  _439
REMARK  183  A    between atoms: _439  and  _440
REMARK  184  A    between atoms: _442  and  _444
REMARK  185  A    between atoms: _444  and  _445
REMARK  186  A    between atoms: _444  and  _447
REMARK  187  A    between atoms: _447  and  _448
REMARK  188  A    between atoms: _454  and  _456
REMARK  189  A    between atoms: _456  and  _457
REMARK  190  A    between atoms: _456  and  _459
REMARK  191  A    between atoms: _459  and  _460
REMARK  192  A    between atoms: _463  and  _465
REMARK  193  A    between atoms: _465  and  _466
REMARK  194  A    between atoms: _465  and  _468
REMARK  195  A    between atoms: _471  and  _473
REMARK  196  A    between atoms: _473  and  _474
REMARK  197  A    between atoms: _473  and  _476
REMARK  198  A    between atoms: _476  and  _477
REMARK  199  A    between atoms: _481  and  _482
REMARK  200  A    between atoms: _487  and  _489
REMARK  201  A    between atoms: _489  and  _490
REMARK  202  A    between atoms: _489  and  _492
REMARK  203  A    between atoms: _492  and  _493
REMARK  204  A    between atoms: _497  and  _498
REMARK  205  A    between atoms: _503  and  _505
REMARK  206  A    between atoms: _505  and  _506
REMARK  207  A    between atoms: _505  and  _508
REMARK  208  A    between atoms: _511  and  _513
REMARK  209  A    between atoms: _513  and  _514
REMARK  210  A    between atoms: _513  and  _516
REMARK  211  A    between atoms: _516  and  _517
REMARK  212  A    between atoms: _522  and  _524
REMARK  213  A    between atoms: _524  and  _525
REMARK  214  A    between atoms: _524  and  _527
REMARK  215  A    between atoms: _527  and  _528
REMARK  216  A    between atoms: _531  and  _533
REMARK  217  A    between atoms: _533  and  _534
REMARK  218  A    between atoms: _533  and  _536
REMARK  219  A    between atoms: _536  and  _537
REMARK  220  A    between atoms: _540  and  _542
REMARK  221  A    between atoms: _542  and  _543
REMARK  222  A    between atoms: _545  and  _547
REMARK  223  A    between atoms: _547  and  _548
REMARK  224  A    between atoms: _547  and  _550
REMARK  225  A    between atoms: _550  and  _551
REMARK  226  A    between atoms: _551  and  _552
REMARK  227  A    between atoms: _552  and  _553
REMARK                            x       y       z     vdW  Elec       q    Type
REMARK                         _______ _______ _______ _____ _____    ______ ____
ROOT
ATOM      1  O   HOH     1      21.433  11.374   4.040  0.00  0.00    +0.000 OA
ENDROOT
TORSDOF 0
