REMARK  Name = ../refined-set-2016/2jdu/2jdu_pocket.pdb
REMARK  99 active torsions:
REMARK  status: ('A' for Active; 'I' for Inactive)
REMARK    1  A    between atoms: _1  and  _3
REMARK    2  A    between atoms: _3  and  _4
REMARK    3  A    between atoms: _7  and  _9
REMARK    4  A    between atoms: _9  and  _10
REMARK    5  A    between atoms: _9  and  _12
REMARK    6  A    between atoms: _10  and  _11
REMARK    7  A    between atoms: _10  and  _18
REMARK    8  A    between atoms: _11  and  CA_248
REMARK    9  A    between atoms: _12  and  _13
REMARK   10  A    between atoms: _18  and  _20
REMARK   11  A    between atoms: _20  and  _21
REMARK   12  A    between atoms: _20  and  _23
REMARK   13  A    between atoms: _23  and  _24
REMARK   14  A    between atoms: _26  and  _28
REMARK   15  A    between atoms: _28  and  _29
REMARK   16  A    between atoms: _28  and  _31
REMARK   17  A    between atoms: _31  and  _32
REMARK   18  A    between atoms: _34  and  _36
REMARK   19  A    between atoms: _36  and  _37
REMARK   20  A    between atoms: _36  and  _39
REMARK   21  A    between atoms: _39  and  _40
REMARK   22  A    between atoms: _45  and  _47
REMARK   23  A    between atoms: _47  and  _48
REMARK   24  A    between atoms: _47  and  _50
REMARK   25  A    between atoms: _50  and  _51
REMARK   26  A    between atoms: _51  and  _52
REMARK   27  A    between atoms: _57  and  _59
REMARK   28  A    between atoms: _59  and  _60
REMARK   29  A    between atoms: _59  and  _62
REMARK   30  A    between atoms: _62  and  _63
REMARK   31  A    between atoms: _63  and  _64
REMARK   32  A    between atoms: _69  and  _71
REMARK   33  A    between atoms: _71  and  _72
REMARK   34  A    between atoms: _71  and  _74
REMARK   35  A    between atoms: _74  and  _75
REMARK   36  A    between atoms: _77  and  _79
REMARK   37  A    between atoms: _79  and  _80
REMARK   38  A    between atoms: _79  and  _82
REMARK   39  A    between atoms: _82  and  _83
REMARK   40  A    between atoms: _86  and  _88
REMARK   41  A    between atoms: _88  and  _89
REMARK   42  A    between atoms: _88  and  _91
REMARK   43  A    between atoms: _91  and  _92
REMARK   44  A    between atoms: _97  and  _99
REMARK   45  A    between atoms: _99  and  _100
REMARK   46  A    between atoms: _99  and  _102
REMARK   47  A    between atoms: _105  and  _107
REMARK   48  A    between atoms: _107  and  _108
REMARK   49  A    between atoms: _107  and  _110
REMARK   50  A    between atoms: _110  and  _111
REMARK   51  A    between atoms: _111  and  _112
REMARK   52  A    between atoms: _112  and  _113
REMARK   53  A    between atoms: _122  and  _124
REMARK   54  A    between atoms: _124  and  _125
REMARK   55  A    between atoms: _124  and  _127
REMARK   56  A    between atoms: _127  and  _128
REMARK   57  A    between atoms: _130  and  _132
REMARK   58  A    between atoms: _132  and  _133
REMARK   59  A    between atoms: _132  and  _135
REMARK   60  A    between atoms: _135  and  _136
REMARK   61  A    between atoms: _136  and  _137
REMARK   62  A    between atoms: _140  and  _142
REMARK   63  A    between atoms: _142  and  _143
REMARK   64  A    between atoms: _142  and  _145
REMARK   65  A    between atoms: _145  and  _146
REMARK   66  A    between atoms: _149  and  _151
REMARK   67  A    between atoms: _151  and  _152
REMARK   68  A    between atoms: _154  and  _156
REMARK   69  A    between atoms: _156  and  _157
REMARK   70  A    between atoms: _156  and  _159
REMARK   71  A    between atoms: _159  and  _160
REMARK   72  A    between atoms: _163  and  _165
REMARK   73  A    between atoms: _174  and  _177
REMARK   74  A    between atoms: _177  and  _178
REMARK   75  A    between atoms: _185  and  _186
REMARK   76  A    between atoms: _192  and  _194
REMARK   77  A    between atoms: _194  and  _195
REMARK   78  A    between atoms: _194  and  _197
REMARK   79  A    between atoms: _197  and  _198
REMARK   80  A    between atoms: _203  and  _204
REMARK   81  A    between atoms: _206  and  _208
REMARK   82  A    between atoms: _208  and  _209
REMARK   83  A    between atoms: _208  and  _211
REMARK   84  A    between atoms: _211  and  _212
REMARK   85  A    between atoms: _212  and  _213
REMARK   86  A    between atoms: _212  and  _214
REMARK   87  A    between atoms: _213  and  CA_248
REMARK   88  A    between atoms: _217  and  _219
REMARK   89  A    between atoms: _219  and  _220
REMARK   90  A    between atoms: _219  and  _222
REMARK   91  A    between atoms: _222  and  _223
REMARK   92  A    between atoms: _226  and  _228
REMARK   93  A    between atoms: _228  and  _229
REMARK   94  A    between atoms: _232  and  _234
REMARK   95  A    between atoms: _234  and  _235
REMARK   96  A    between atoms: _234  and  _237
REMARK   97  A    between atoms: _237  and  _238
REMARK   98  A    between atoms: _241  and  _243
REMARK   99  A    between atoms: _243  and  _244
REMARK                            x       y       z     vdW  Elec       q    Type
REMARK                         _______ _______ _______ _____ _____    ______ ____
ROOT
ATOM      1  CA  TYR A   9     -31.391  16.046  10.252  0.00  0.00    +0.000 C 
ENDROOT
BRANCH   1   2
ATOM      2  N   TYR A   9     -31.525  17.292  11.079  0.00  0.00    +0.000 N 
ATOM      3  C   UNK A   8     -31.202  17.374  12.388  0.00  0.00    +0.000 C 
ATOM      4  O   UNK A   8     -30.677  16.455  13.010  0.00  0.00    +0.000 OA
ATOM      5  H   TYR A   9     -31.890  18.147  10.614  0.00  0.00    +0.000 HD
BRANCH   3   6
ATOM      6  C   UNK A   8     -31.461  18.710  13.127  0.00  0.00    +0.000 C 
ATOM      7  C   UNK A   8     -32.541  18.638  14.233  0.00  0.00    +0.000 C 
ATOM      8  C   UNK A   8     -33.987  18.545  13.714  0.00  0.00    +0.000 C 
ATOM      9  O   UNK A   8     -34.897  18.464  14.589  0.00  0.00    +0.000 OA
ATOM     10  O   UNK A   8     -34.230  18.543  12.487  0.00  0.00    +0.000 OA
ATOM     11 CA   UNK A   8     -35.574  19.488  10.857  0.00  0.00    +0.000 Ca
ATOM     12  O   UNK A   6     -34.816  21.567  11.757  0.00  0.00    +0.000 OA
ATOM     13  C   UNK A   6     -34.932  22.215  12.828  0.00  0.00    +0.000 C 
ATOM     14  O   UNK A   6     -35.469  21.780  13.861  0.00  0.00    +0.000 OA
ATOM     15  C   UNK A   6     -34.396  23.644  12.900  0.00  0.00    +0.000 C 
ATOM     16  C   UNK A   6     -33.477  23.983  11.729  0.00  0.00    +0.000 C 
ATOM     17  C   UNK A   6     -32.247  23.077  11.749  0.00  0.00    +0.000 C 
ATOM     18  O   UNK A   6     -31.484  23.089  12.722  0.00  0.00    +0.000 OA
ATOM     19  N   ASN A   7     -32.080  22.293  10.680  0.00  0.00    +0.000 N 
ATOM     20  CA  ASN A   7     -30.916  21.403  10.513  0.00  0.00    +0.000 C 
ATOM     21  C   ASN A   7     -30.606  20.414  11.650  0.00  0.00    +0.000 C 
ATOM     22  O   ASN A   7     -29.450  20.195  11.985  0.00  0.00    +0.000 OA
ATOM     23  H   ASN A   7     -32.803  22.311   9.933  0.00  0.00    +0.000 HD
ATOM     24  N   UNK A   8     -31.662  19.816  12.202  0.00  0.00    +0.000 N 
ATOM     25  H   UNK A   8     -32.624  20.138  11.973  0.00  0.00    +0.000 HD
BRANCH  16  26
ATOM     26  N   UNK A   6     -34.189  23.989  10.453  0.00  0.00    +0.000 N 
ATOM     27  H   UNK A   6     -34.907  23.266  10.246  0.00  0.00    +0.000 HD
ATOM     28  C   THR A   5     -33.903  24.941   9.553  0.00  0.00    +0.000 C 
ATOM     29  O   THR A   5     -32.932  25.699   9.678  0.00  0.00    +0.000 OA
BRANCH  28  30
ATOM     30  CA  THR A   5     -34.805  25.068   8.332  0.00  0.00    +0.000 C 
BRANCH  30  31
ATOM     31  N   THR A   5     -35.769  23.972   8.187  0.00  0.00    +0.000 N 
ATOM     32  H   THR A   5     -36.491  23.826   8.921  0.00  0.00    +0.000 HD
ATOM     33  C   GLY A   4     -35.735  23.160   7.130  0.00  0.00    +0.000 C 
ATOM     34  O   GLY A   4     -34.797  23.103   6.332  0.00  0.00    +0.000 OA
BRANCH  33  35
ATOM     35  CA  GLY A   4     -36.934  22.256   6.972  0.00  0.00    +0.000 C 
BRANCH  35  36
ATOM     36  N   GLY A   4     -36.560  20.943   6.425  0.00  0.00    +0.000 N 
ATOM     37  H   GLY A   4     -35.627  20.535   6.637  0.00  0.00    +0.000 HD
ATOM     38  C   ASN A   3     -37.422  20.279   5.657  0.00  0.00    +0.000 C 
ATOM     39  O   ASN A   3     -38.392  20.834   5.122  0.00  0.00    +0.000 OA
BRANCH  38  40
ATOM     40  CA  ASN A   3     -37.206  18.776   5.490  0.00  0.00    +0.000 C 
BRANCH  40  41
ATOM     41  N   ASN A   3     -36.077  18.316   6.333  0.00  0.00    +0.000 N 
ATOM     42  H   ASN A   3     -36.197  18.289   7.366  0.00  0.00    +0.000 HD
ATOM     43  C   SER A   2     -34.908  17.935   5.806  0.00  0.00    +0.000 C 
ATOM     44  O   SER A   2     -34.663  17.990   4.625  0.00  0.00    +0.000 OA
BRANCH  43  45
ATOM     45  CA  SER A   2     -33.877  17.433   6.805  0.00  0.00    +0.000 C 
BRANCH  45  46
ATOM     46  N   SER A   2     -33.455  16.110   6.362  0.00  0.00    +0.000 N 
ATOM     47  C   SER A   1     -33.476  15.042   7.170  0.00  0.00    +0.000 C 
ATOM     48  O   SER A   1     -33.817  15.074   8.362  0.00  0.00    +0.000 OA
ATOM     49  H   SER A   2     -33.126  15.991   5.383  0.00  0.00    +0.000 HD
BRANCH  47  50
ATOM     50  CA  SER A   1     -32.935  13.751   6.560  0.00  0.00    +0.000 C 
BRANCH  50  51
ATOM     51  N   SER A   1     -32.313  12.940   7.621  0.00  0.00    +0.000 NA
ATOM     52  H   SER A   1     -32.660  13.007   8.599  0.00  0.00    +0.000 HD
ENDBRANCH  50  51
BRANCH  50  53
ATOM     53  CB  SER A   1     -34.064  13.009   5.843  0.00  0.00    +0.000 C 
BRANCH  53  54
ATOM     54  OG  SER A   1     -35.121  12.726   6.735  0.00  0.00    +0.000 OA
ATOM     55  H   SER A   1     -34.785  12.160   7.474  0.00  0.00    +0.000 HD
ENDBRANCH  53  54
ENDBRANCH  50  53
ENDBRANCH  47  50
ENDBRANCH  45  46
BRANCH  45  56
ATOM     56  CB  SER A   2     -32.653  18.392   6.816  0.00  0.00    +0.000 C 
BRANCH  56  57
ATOM     57  CG  SER A   2     -33.025  19.853   7.266  0.00  0.00    +0.000 C 
BRANCH  57  58
ATOM     58  CD  SER A   2     -33.769  19.873   8.605  0.00  0.00    +0.000 C 
ATOM     59  OE2 SER A   2     -33.283  19.259   9.607  0.00  0.00    +0.000 OA
ATOM     60  OE1 SER A   2     -34.870  20.496   8.676  0.00  0.00    +0.000 OA
ENDBRANCH  57  58
ENDBRANCH  56  57
ENDBRANCH  45  56
ENDBRANCH  43  45
ENDBRANCH  40  41
BRANCH  40  61
ATOM     61  CB  ASN A   3     -38.497  17.994   5.833  0.00  0.00    +0.000 C 
BRANCH  61  62
ATOM     62  CG  ASN A   3     -39.045  18.287   7.252  0.00  0.00    +0.000 C 
ATOM     63  OD2 ASN A   3     -38.629  19.278   7.928  0.00  0.00    +0.000 OA
ATOM     64  OD1 ASN A   3     -39.930  17.532   7.751  0.00  0.00    +0.000 OA
ENDBRANCH  61  62
ENDBRANCH  40  61
ENDBRANCH  38  40
ENDBRANCH  35  36
ENDBRANCH  33  35
ENDBRANCH  30  31
BRANCH  30  65
ATOM     65  CB  THR A   5     -35.504  26.492   8.325  0.00  0.00    +0.000 C 
ATOM     66  CG2 THR A   5     -36.259  26.746   7.007  0.00  0.00    +0.000 C 
BRANCH  65  67
ATOM     67  OG1 THR A   5     -36.428  26.592   9.415  0.00  0.00    +0.000 OA
ATOM     68  HG1 THR A   5     -35.943  26.472  10.270  0.00  0.00    +0.000 HD
ENDBRANCH  65  67
ENDBRANCH  30  65
ENDBRANCH  28  30
ENDBRANCH  16  26
BRANCH  20  69
ATOM     69  CB  ASN A   7     -29.684  22.232  10.158  0.00  0.00    +0.000 C 
BRANCH  69  70
ATOM     70  CG  ASN A   7     -29.919  23.083   8.934  0.00  0.00    +0.000 C 
ATOM     71  ND2 ASN A   7     -29.455  24.320   8.986  0.00  0.00    +0.000 N 
ATOM     72 HD21 ASN A   7     -28.948  24.650   9.832  0.00  0.00    +0.000 HD
ATOM     73 HD22 ASN A   7     -29.597  24.963   8.181  0.00  0.00    +0.000 HD
ATOM     74  OD1 ASN A   7     -30.533  22.634   7.947  0.00  0.00    +0.000 OA
ENDBRANCH  69  70
ENDBRANCH  20  69
ENDBRANCH   3   6
ENDBRANCH   1   2
BRANCH   1  77
ATOM     75  N   UNK A  10     -33.069  15.028  11.687  0.00  0.00    +0.000 N 
ATOM     76  H   UNK A  10     -33.422  15.996  11.825  0.00  0.00    +0.000 HD
ATOM     77  C   TYR A   9     -32.013  14.804  10.890  0.00  0.00    +0.000 C 
ATOM     78  O   TYR A   9     -31.653  13.662  10.512  0.00  0.00    +0.000 OA
BRANCH  75  79
ATOM     79  C   UNK A  10     -33.720  13.909  12.360  0.00  0.00    +0.000 C 
BRANCH  79  80
ATOM     80  C   UNK A  10     -35.165  13.776  11.887  0.00  0.00    +0.000 C 
ATOM     81  O   UNK A  10     -35.909  13.000  12.491  0.00  0.00    +0.000 OA
ATOM     82  N   ASP A  11     -35.522  14.460  10.795  0.00  0.00    +0.000 N 
ATOM     83  H   ASP A  11     -34.808  14.895  10.177  0.00  0.00    +0.000 HD
BRANCH  82  84
ATOM     84  CA  ASP A  11     -36.959  14.578  10.496  0.00  0.00    +0.000 C 
BRANCH  84  85
ATOM     85  C   ASP A  11     -37.507  13.205  10.120  0.00  0.00    +0.000 C 
ATOM     86  O   ASP A  11     -38.602  12.824  10.553  0.00  0.00    +0.000 OA
ATOM     87  N   ALA A  12     -36.735  12.456   9.332  0.00  0.00    +0.000 N 
ATOM     88  H   ALA A  12     -36.014  12.922   8.745  0.00  0.00    +0.000 HD
BRANCH  87  89
ATOM     89  CA  ALA A  12     -36.869  10.995   9.265  0.00  0.00    +0.000 C 
ATOM     90  CB  ALA A  12     -37.501  10.517   7.937  0.00  0.00    +0.000 C 
BRANCH  89  91
ATOM     91  C   ALA A  12     -35.468  10.427   9.402  0.00  0.00    +0.000 C 
ATOM     92  O   ALA A  12     -34.524  10.886   8.749  0.00  0.00    +0.000 OA
ENDBRANCH  89  91
ENDBRANCH  87  89
ENDBRANCH  84  85
BRANCH  84  93
ATOM     93  CB  ASP A  11     -37.207  15.632   9.424  0.00  0.00    +0.000 C 
BRANCH  93  94
ATOM     94  CG  ASP A  11     -36.823  17.006   9.884  0.00  0.00    +0.000 C 
ATOM     95  OD2 ASP A  11     -37.001  17.275  11.093  0.00  0.00    +0.000 OA
ATOM     96  OD1 ASP A  11     -36.333  17.784   9.031  0.00  0.00    +0.000 OA
ENDBRANCH  93  94
ENDBRANCH  84  93
ENDBRANCH  82  84
ENDBRANCH  79  80
BRANCH  79  97
ATOM     97  C   UNK A  10     -33.669  14.064  13.885  0.00  0.00    +0.000 C 
BRANCH  97  98
ATOM     98  C   UNK A  10     -34.587  15.174  14.379  0.00  0.00    +0.000 C 
BRANCH  98  99
ATOM     99  N   UNK A  10     -34.749  15.275  15.687  0.00  0.00    +0.000 NA
ATOM    100  H   UNK A  10     -34.240  14.631  16.325  0.00  0.00    +0.000 HD
ATOM    101  H   UNK A  10     -35.386  15.999  16.078  0.00  0.00    +0.000 HD
ENDBRANCH  98  99
BRANCH  98 102
ATOM    102  O   UNK A  10     -35.168  15.916  13.547  0.00  0.00    +0.000 OA
BRANCH 102 103
ATOM    103 CA   UNK A  10     -36.930  17.455  13.649  0.00  0.00    +0.000 Ca
BRANCH 103 104
ATOM    104  O   UNK A   0     -38.540  15.639  13.405  0.00  0.00    +0.000 OA
BRANCH 104 105
ATOM    105  C   UNK A   0     -39.495  14.882  13.657  0.00  0.00    +0.000 C 
BRANCH 105 106
ATOM    106  N   SER A   1     -40.752  15.140  13.278  0.00  0.00    +0.000 NA
ATOM    107  H   SER A   1     -41.518  14.483  13.530  0.00  0.00    +0.000 HD
BRANCH 106 108
ATOM    108  CA  SER A   1     -41.047  16.359  12.502  0.00  0.00    +0.000 C 
BRANCH 108 109
ATOM    109  C   SER A   1     -42.543  16.641  12.612  0.00  0.00    +0.000 C 
ATOM    110  O   SER A   1     -43.350  15.725  12.764  0.00  0.00    +0.000 OA
ATOM    111  N   SER A   2     -42.907  17.922  12.559  0.00  0.00    +0.000 N 
ATOM    112  H   SER A   2     -42.185  18.671  12.580  0.00  0.00    +0.000 HD
BRANCH 111 113
ATOM    113  CA  SER A   2     -44.320  18.271  12.471  0.00  0.00    +0.000 C 
BRANCH 113 114
ATOM    114  C   SER A   2     -44.914  17.913  11.103  0.00  0.00    +0.000 C 
ATOM    115  O   SER A   2     -46.150  17.846  10.975  0.00  0.00    +0.000 OA
ATOM    116  N   ASN A   3     -44.073  17.620  10.102  0.00  0.00    +0.000 N 
ATOM    117  H   ASN A   3     -43.047  17.659  10.268  0.00  0.00    +0.000 HD
BRANCH 116 118
ATOM    118  CA  ASN A   3     -44.570  17.249   8.787  0.00  0.00    +0.000 C 
BRANCH 118 119
ATOM    119  C   ASN A   3     -44.629  15.726   8.622  0.00  0.00    +0.000 C 
ATOM    120  O   ASN A   3     -43.762  15.000   9.147  0.00  0.00    +0.000 OA
ENDBRANCH 118 119
BRANCH 118 121
ATOM    121  CB  ASN A   3     -43.608  17.744   7.707  0.00  0.00    +0.000 C 
BRANCH 121 122
ATOM    122  CG  ASN A   3     -43.449  19.232   7.686  0.00  0.00    +0.000 C 
ATOM    123  ND2 ASN A   3     -42.195  19.724   7.744  0.00  0.00    +0.000 N 
ATOM    124 HD21 ASN A   3     -41.387  19.077   7.848  0.00  0.00    +0.000 HD
ATOM    125 HD22 ASN A   3     -42.036  20.750   7.685  0.00  0.00    +0.000 HD
ATOM    126  OD1 ASN A   3     -44.444  19.937   7.564  0.00  0.00    +0.000 OA
ENDBRANCH 121 122
ENDBRANCH 118 121
ENDBRANCH 116 118
ENDBRANCH 113 114
BRANCH 113 127
ATOM    127  CB  SER A   2     -44.553  19.757  12.770  0.00  0.00    +0.000 C 
BRANCH 127 128
ATOM    128  OG  SER A   2     -43.902  20.591  11.849  0.00  0.00    +0.000 OA
ATOM    129  H   SER A   2     -44.079  21.537  12.080  0.00  0.00    +0.000 HD
ENDBRANCH 127 128
ENDBRANCH 113 127
ENDBRANCH 111 113
ENDBRANCH 108 109
BRANCH 108 130
ATOM    130  CB  SER A   1     -40.672  16.184  11.029  0.00  0.00    +0.000 C 
BRANCH 130 131
ATOM    131  OG  SER A   1     -41.109  17.315  10.269  0.00  0.00    +0.000 OA
ATOM    132  H   SER A   1     -40.860  17.189   9.319  0.00  0.00    +0.000 HD
ENDBRANCH 130 131
ENDBRANCH 108 130
ENDBRANCH 106 108
ENDBRANCH 105 106
BRANCH 105 133
ATOM    133  C   UNK A   0     -39.241  13.539  14.348  0.00  0.00    +0.000 C 
BRANCH 133 136
ATOM    134  C   UNK A   0     -39.896  11.268  13.701  0.00  0.00    +0.000 C 
ATOM    135  O   UNK A   0     -40.227  10.950  14.834  0.00  0.00    +0.000 OA
ATOM    136  N   UNK A   0     -39.396  12.458  13.371  0.00  0.00    +0.000 N 
ATOM    137  H   UNK A   0     -39.106  12.625  12.386  0.00  0.00    +0.000 HD
BRANCH 134 138
ATOM    138  C   UNK A   0     -40.056  10.300  12.563  0.00  0.00    +0.000 C 
ATOM    139  C   UNK A   0     -41.550  10.352  12.059  0.00  0.00    +0.000 C 
BRANCH 138 140
ATOM    140  N   UNK A   0     -39.692   8.907  12.922  0.00  0.00    +0.000 NA
ATOM    141  H   UNK A   0     -40.269   8.379  13.608  0.00  0.00    +0.000 HD
ENDBRANCH 138 140
ENDBRANCH 134 138
ENDBRANCH 133 136
BRANCH 133 142
ATOM    142  C   UNK A   0     -37.848  13.572  14.982  0.00  0.00    +0.000 C 
BRANCH 142 143
ATOM    143  C   UNK A   0     -37.637  12.405  15.906  0.00  0.00    +0.000 C 
ATOM    144  O   UNK A   0     -38.098  12.412  17.037  0.00  0.00    +0.000 OA
ATOM    145  N   UNK A   0     -36.916  11.381  15.413  0.00  0.00    +0.000 N 
ATOM    146  H   UNK A   0     -36.729  10.545  16.003  0.00  0.00    +0.000 HD
ATOM    147  H   UNK A   0     -36.546  11.426  14.442  0.00  0.00    +0.000 HD
ENDBRANCH 142 143
ENDBRANCH 133 142
ENDBRANCH 105 133
ENDBRANCH 104 105
ENDBRANCH 103 104
ENDBRANCH 102 103
ENDBRANCH  98 102
ENDBRANCH  97  98
ENDBRANCH  79  97
ENDBRANCH  75  79
ENDBRANCH   1  77
BRANCH   1 148
ATOM    148  CB  TYR A   9     -29.920  15.783   9.772  0.00  0.00    +0.000 C 
BRANCH 148 149
ATOM    149  CG  TYR A   9     -29.607  16.680   8.595  0.00  0.00    +0.000 A 
ATOM    150  CD2 TYR A   9     -29.278  18.031   8.816  0.00  0.00    +0.000 A 
ATOM    151  CE2 TYR A   9     -29.052  18.879   7.736  0.00  0.00    +0.000 A 
ATOM    152  CZ  TYR A   9     -29.153  18.424   6.471  0.00  0.00    +0.000 A 
ATOM    153  CE1 TYR A   9     -29.508  17.087   6.175  0.00  0.00    +0.000 A 
ATOM    154  CD1 TYR A   9     -29.724  16.220   7.282  0.00  0.00    +0.000 A 
BRANCH 152 155
ATOM    155  OH  TYR A   9     -28.945  19.381   5.495  0.00  0.00    +0.000 OA
ATOM    156  HH  TYR A   9     -29.037  18.965   4.601  0.00  0.00    +0.000 HD
ENDBRANCH 152 155
ENDBRANCH 148 149
ENDBRANCH   1 148
TORSDOF 62
REMARK  Name = ../refined-set-2016/2jdu/2jdu_pocket.pdb
REMARK  99 active torsions:
REMARK  status: ('A' for Active; 'I' for Inactive)
REMARK    1  A    between atoms: _1  and  _3
REMARK    2  A    between atoms: _3  and  _4
REMARK    3  A    between atoms: _7  and  _9
REMARK    4  A    between atoms: _9  and  _10
REMARK    5  A    between atoms: _9  and  _12
REMARK    6  A    between atoms: _10  and  _11
REMARK    7  A    between atoms: _10  and  _18
REMARK    8  A    between atoms: _11  and  CA_248
REMARK    9  A    between atoms: _12  and  _13
REMARK   10  A    between atoms: _18  and  _20
REMARK   11  A    between atoms: _20  and  _21
REMARK   12  A    between atoms: _20  and  _23
REMARK   13  A    between atoms: _23  and  _24
REMARK   14  A    between atoms: _26  and  _28
REMARK   15  A    between atoms: _28  and  _29
REMARK   16  A    between atoms: _28  and  _31
REMARK   17  A    between atoms: _31  and  _32
REMARK   18  A    between atoms: _34  and  _36
REMARK   19  A    between atoms: _36  and  _37
REMARK   20  A    between atoms: _36  and  _39
REMARK   21  A    between atoms: _39  and  _40
REMARK   22  A    between atoms: _45  and  _47
REMARK   23  A    between atoms: _47  and  _48
REMARK   24  A    between atoms: _47  and  _50
REMARK   25  A    between atoms: _50  and  _51
REMARK   26  A    between atoms: _51  and  _52
REMARK   27  A    between atoms: _57  and  _59
REMARK   28  A    between atoms: _59  and  _60
REMARK   29  A    between atoms: _59  and  _62
REMARK   30  A    between atoms: _62  and  _63
REMARK   31  A    between atoms: _63  and  _64
REMARK   32  A    between atoms: _69  and  _71
REMARK   33  A    between atoms: _71  and  _72
REMARK   34  A    between atoms: _71  and  _74
REMARK   35  A    between atoms: _74  and  _75
REMARK   36  A    between atoms: _77  and  _79
REMARK   37  A    between atoms: _79  and  _80
REMARK   38  A    between atoms: _79  and  _82
REMARK   39  A    between atoms: _82  and  _83
REMARK   40  A    between atoms: _86  and  _88
REMARK   41  A    between atoms: _88  and  _89
REMARK   42  A    between atoms: _88  and  _91
REMARK   43  A    between atoms: _91  and  _92
REMARK   44  A    between atoms: _97  and  _99
REMARK   45  A    between atoms: _99  and  _100
REMARK   46  A    between atoms: _99  and  _102
REMARK   47  A    between atoms: _105  and  _107
REMARK   48  A    between atoms: _107  and  _108
REMARK   49  A    between atoms: _107  and  _110
REMARK   50  A    between atoms: _110  and  _111
REMARK   51  A    between atoms: _111  and  _112
REMARK   52  A    between atoms: _112  and  _113
REMARK   53  A    between atoms: _122  and  _124
REMARK   54  A    between atoms: _124  and  _125
REMARK   55  A    between atoms: _124  and  _127
REMARK   56  A    between atoms: _127  and  _128
REMARK   57  A    between atoms: _130  and  _132
REMARK   58  A    between atoms: _132  and  _133
REMARK   59  A    between atoms: _132  and  _135
REMARK   60  A    between atoms: _135  and  _136
REMARK   61  A    between atoms: _136  and  _137
REMARK   62  A    between atoms: _140  and  _142
REMARK   63  A    between atoms: _142  and  _143
REMARK   64  A    between atoms: _142  and  _145
REMARK   65  A    between atoms: _145  and  _146
REMARK   66  A    between atoms: _149  and  _151
REMARK   67  A    between atoms: _151  and  _152
REMARK   68  A    between atoms: _154  and  _156
REMARK   69  A    between atoms: _156  and  _157
REMARK   70  A    between atoms: _156  and  _159
REMARK   71  A    between atoms: _159  and  _160
REMARK   72  A    between atoms: _163  and  _165
REMARK   73  A    between atoms: _174  and  _177
REMARK   74  A    between atoms: _177  and  _178
REMARK   75  A    between atoms: _185  and  _186
REMARK   76  A    between atoms: _192  and  _194
REMARK   77  A    between atoms: _194  and  _195
REMARK   78  A    between atoms: _194  and  _197
REMARK   79  A    between atoms: _197  and  _198
REMARK   80  A    between atoms: _203  and  _204
REMARK   81  A    between atoms: _206  and  _208
REMARK   82  A    between atoms: _208  and  _209
REMARK   83  A    between atoms: _208  and  _211
REMARK   84  A    between atoms: _211  and  _212
REMARK   85  A    between atoms: _212  and  _213
REMARK   86  A    between atoms: _212  and  _214
REMARK   87  A    between atoms: _213  and  CA_248
REMARK   88  A    between atoms: _217  and  _219
REMARK   89  A    between atoms: _219  and  _220
REMARK   90  A    between atoms: _219  and  _222
REMARK   91  A    between atoms: _222  and  _223
REMARK   92  A    between atoms: _226  and  _228
REMARK   93  A    between atoms: _228  and  _229
REMARK   94  A    between atoms: _232  and  _234
REMARK   95  A    between atoms: _234  and  _235
REMARK   96  A    between atoms: _234  and  _237
REMARK   97  A    between atoms: _237  and  _238
REMARK   98  A    between atoms: _241  and  _243
REMARK   99  A    between atoms: _243  and  _244
REMARK                            x       y       z     vdW  Elec       q    Type
REMARK                         _______ _______ _______ _____ _____    ______ ____
ROOT
ATOM      1  CB  GLN A   1     -41.479  11.338   7.245  0.00  0.00    +0.035 C 
ENDROOT
BRANCH   1   2
ATOM      2  CA  GLN A   1     -42.544  11.882   6.292  0.00  0.00    +0.134 C 
BRANCH   2   3
ATOM      3  N   GLN A   1     -43.715  12.355   7.052  0.00  0.00    -0.239 NA
ATOM      4  H   GLN A   1     -43.990  11.860   7.924  0.00  0.00    +0.142 HD
ENDBRANCH   2   3
BRANCH   2   5
ATOM      5  C   GLN A   1     -42.978  10.721   5.427  0.00  0.00    +0.224 C 
ATOM      6  O   GLN A   1     -43.851   9.914   5.857  0.00  0.00    -0.287 OA
ENDBRANCH   2   5
ENDBRANCH   1   2
BRANCH   1   7
ATOM      7  CG  GLN A   1     -41.097  12.381   8.322  0.00  0.00    +0.087 C 
BRANCH   7   8
ATOM      8  CD  GLN A   1     -40.408  13.574   7.704  0.00  0.00    +0.219 C 
ATOM      9  NE2 GLN A   1     -40.883  14.804   7.991  0.00  0.00    -0.329 N 
ATOM     10 HE21 GLN A   1     -41.738  14.908   8.574  0.00  0.00    +0.145 HD
ATOM     11 HE22 GLN A   1     -40.394  15.648   7.629  0.00  0.00    +0.145 HD
ATOM     12  OE1 GLN A   1     -39.395  13.387   7.015  0.00  0.00    -0.275 OA
ENDBRANCH   7   8
ENDBRANCH   1   7
TORSDOF 5
REMARK  Name = ../refined-set-2016/2jdu/2jdu_pocket.pdb
REMARK  99 active torsions:
REMARK  status: ('A' for Active; 'I' for Inactive)
REMARK    1  A    between atoms: _1  and  _3
REMARK    2  A    between atoms: _3  and  _4
REMARK    3  A    between atoms: _7  and  _9
REMARK    4  A    between atoms: _9  and  _10
REMARK    5  A    between atoms: _9  and  _12
REMARK    6  A    between atoms: _10  and  _11
REMARK    7  A    between atoms: _10  and  _18
REMARK    8  A    between atoms: _11  and  CA_248
REMARK    9  A    between atoms: _12  and  _13
REMARK   10  A    between atoms: _18  and  _20
REMARK   11  A    between atoms: _20  and  _21
REMARK   12  A    between atoms: _20  and  _23
REMARK   13  A    between atoms: _23  and  _24
REMARK   14  A    between atoms: _26  and  _28
REMARK   15  A    between atoms: _28  and  _29
REMARK   16  A    between atoms: _28  and  _31
REMARK   17  A    between atoms: _31  and  _32
REMARK   18  A    between atoms: _34  and  _36
REMARK   19  A    between atoms: _36  and  _37
REMARK   20  A    between atoms: _36  and  _39
REMARK   21  A    between atoms: _39  and  _40
REMARK   22  A    between atoms: _45  and  _47
REMARK   23  A    between atoms: _47  and  _48
REMARK   24  A    between atoms: _47  and  _50
REMARK   25  A    between atoms: _50  and  _51
REMARK   26  A    between atoms: _51  and  _52
REMARK   27  A    between atoms: _57  and  _59
REMARK   28  A    between atoms: _59  and  _60
REMARK   29  A    between atoms: _59  and  _62
REMARK   30  A    between atoms: _62  and  _63
REMARK   31  A    between atoms: _63  and  _64
REMARK   32  A    between atoms: _69  and  _71
REMARK   33  A    between atoms: _71  and  _72
REMARK   34  A    between atoms: _71  and  _74
REMARK   35  A    between atoms: _74  and  _75
REMARK   36  A    between atoms: _77  and  _79
REMARK   37  A    between atoms: _79  and  _80
REMARK   38  A    between atoms: _79  and  _82
REMARK   39  A    between atoms: _82  and  _83
REMARK   40  A    between atoms: _86  and  _88
REMARK   41  A    between atoms: _88  and  _89
REMARK   42  A    between atoms: _88  and  _91
REMARK   43  A    between atoms: _91  and  _92
REMARK   44  A    between atoms: _97  and  _99
REMARK   45  A    between atoms: _99  and  _100
REMARK   46  A    between atoms: _99  and  _102
REMARK   47  A    between atoms: _105  and  _107
REMARK   48  A    between atoms: _107  and  _108
REMARK   49  A    between atoms: _107  and  _110
REMARK   50  A    between atoms: _110  and  _111
REMARK   51  A    between atoms: _111  and  _112
REMARK   52  A    between atoms: _112  and  _113
REMARK   53  A    between atoms: _122  and  _124
REMARK   54  A    between atoms: _124  and  _125
REMARK   55  A    between atoms: _124  and  _127
REMARK   56  A    between atoms: _127  and  _128
REMARK   57  A    between atoms: _130  and  _132
REMARK   58  A    between atoms: _132  and  _133
REMARK   59  A    between atoms: _132  and  _135
REMARK   60  A    between atoms: _135  and  _136
REMARK   61  A    between atoms: _136  and  _137
REMARK   62  A    between atoms: _140  and  _142
REMARK   63  A    between atoms: _142  and  _143
REMARK   64  A    between atoms: _142  and  _145
REMARK   65  A    between atoms: _145  and  _146
REMARK   66  A    between atoms: _149  and  _151
REMARK   67  A    between atoms: _151  and  _152
REMARK   68  A    between atoms: _154  and  _156
REMARK   69  A    between atoms: _156  and  _157
REMARK   70  A    between atoms: _156  and  _159
REMARK   71  A    between atoms: _159  and  _160
REMARK   72  A    between atoms: _163  and  _165
REMARK   73  A    between atoms: _174  and  _177
REMARK   74  A    between atoms: _177  and  _178
REMARK   75  A    between atoms: _185  and  _186
REMARK   76  A    between atoms: _192  and  _194
REMARK   77  A    between atoms: _194  and  _195
REMARK   78  A    between atoms: _194  and  _197
REMARK   79  A    between atoms: _197  and  _198
REMARK   80  A    between atoms: _203  and  _204
REMARK   81  A    between atoms: _206  and  _208
REMARK   82  A    between atoms: _208  and  _209
REMARK   83  A    between atoms: _208  and  _211
REMARK   84  A    between atoms: _211  and  _212
REMARK   85  A    between atoms: _212  and  _213
REMARK   86  A    between atoms: _212  and  _214
REMARK   87  A    between atoms: _213  and  CA_248
REMARK   88  A    between atoms: _217  and  _219
REMARK   89  A    between atoms: _219  and  _220
REMARK   90  A    between atoms: _219  and  _222
REMARK   91  A    between atoms: _222  and  _223
REMARK   92  A    between atoms: _226  and  _228
REMARK   93  A    between atoms: _228  and  _229
REMARK   94  A    between atoms: _232  and  _234
REMARK   95  A    between atoms: _234  and  _235
REMARK   96  A    between atoms: _234  and  _237
REMARK   97  A    between atoms: _237  and  _238
REMARK   98  A    between atoms: _241  and  _243
REMARK   99  A    between atoms: _243  and  _244
REMARK                            x       y       z     vdW  Elec       q    Type
REMARK                         _______ _______ _______ _____ _____    ______ ____
ROOT
ATOM      1  C   SER A   2     -43.280  13.131  15.260  0.00  0.00    +0.243 C 
ATOM      2  N   THR A   3     -43.346  13.758  16.439  0.00  0.00    -0.295 N 
ATOM      3  H   THR A   3     -44.220  13.714  17.001  0.00  0.00    +0.150 HD
ATOM      4  O   SER A   2     -42.362  13.246  14.458  0.00  0.00    -0.273 OA
ENDROOT
BRANCH   2   5
ATOM      5  CA  THR A   3     -42.201  14.501  16.937  0.00  0.00    +0.176 C 
BRANCH   5   6
ATOM      6  C   THR A   3     -41.553  13.798  18.137  0.00  0.00    +0.243 C 
ATOM      7  O   THR A   3     -40.797  14.422  18.885  0.00  0.00    -0.273 OA
ATOM      8  N   ASN A   4     -41.840  12.494  18.315  0.00  0.00    -0.298 N 
ATOM      9  H   ASN A   4     -42.444  12.010  17.620  0.00  0.00    +0.150 HD
BRANCH   8  10
ATOM     10  CA  ASN A   4     -41.325  11.739  19.460  0.00  0.00    +0.146 C 
BRANCH  10  11
ATOM     11  C   ASN A   4     -40.821  10.361  18.992  0.00  0.00    +0.227 C 
ATOM     12  O   ASN A   4     -40.981   9.345  19.687  0.00  0.00    -0.286 OA
ENDBRANCH  10  11
BRANCH  10  13
ATOM     13  CB  ASN A   4     -42.432  11.576  20.509  0.00  0.00    +0.112 C 
BRANCH  13  14
ATOM     14  CG  ASN A   4     -41.907  11.211  21.875  0.00  0.00    +0.222 C 
ATOM     15  ND2 ASN A   4     -42.595  10.267  22.507  0.00  0.00    -0.329 N 
ATOM     16 HD21 ASN A   4     -42.303   9.957  23.456  0.00  0.00    +0.145 HD
ATOM     17 HD22 ASN A   4     -43.426   9.837  22.053  0.00  0.00    +0.145 HD
ATOM     18  OD1 ASN A   4     -40.901  11.757  22.380  0.00  0.00    -0.275 OA
ENDBRANCH  13  14
ENDBRANCH  10  13
ENDBRANCH   8  10
ENDBRANCH   5   6
BRANCH   5  19
ATOM     19  CB  THR A   3     -42.573  15.987  17.290  0.00  0.00    +0.137 C 
ATOM     20  CG2 THR A   3     -42.879  16.797  16.042  0.00  0.00    +0.034 C 
BRANCH  19  21
ATOM     21  OG1 THR A   3     -43.715  15.996  18.159  0.00  0.00    -0.382 OA
ATOM     22  HG1 THR A   3     -43.951  16.931  18.382  0.00  0.00    +0.210 HD
ENDBRANCH  19  21
ENDBRANCH   5  19
ENDBRANCH   2   5
BRANCH   1  23
ATOM     23  CA  SER A   2     -44.428  12.224  14.918  0.00  0.00    +0.178 C 
BRANCH  23  26
ATOM     24  C   GLN A   1     -45.911  11.984  13.037  0.00  0.00    +0.238 C 
ATOM     25  O   GLN A   1     -46.885  11.785  13.778  0.00  0.00    -0.274 OA
ATOM     26  N   SER A   2     -44.689  12.135  13.518  0.00  0.00    -0.295 N 
ATOM     27  H   SER A   2     -43.891  12.191  12.854  0.00  0.00    +0.150 HD
BRANCH  24  28
ATOM     28  CA  GLN A   1     -46.035  12.006  11.513  0.00  0.00    +0.145 C 
BRANCH  28  29
ATOM     29  N   GLN A   1     -46.278  10.656  11.028  0.00  0.00    -0.238 NA
ATOM     30  H   GLN A   1     -46.887  10.020  11.582  0.00  0.00    +0.142 HD
ENDBRANCH  28  29
BRANCH  28  31
ATOM     31  CB  GLN A   1     -47.145  12.983  11.078  0.00  0.00    +0.036 C 
BRANCH  31  32
ATOM     32  CG  GLN A   1     -46.763  14.463  11.331  0.00  0.00    +0.087 C 
BRANCH  32  33
ATOM     33  CD  GLN A   1     -47.106  14.923  12.717  0.00  0.00    +0.219 C 
ATOM     34  NE2 GLN A   1     -46.100  15.278  13.549  0.00  0.00    -0.329 N 
ATOM     35 HE21 GLN A   1     -46.314  15.609  14.511  0.00  0.00    +0.145 HD
ATOM     36 HE22 GLN A   1     -45.113  15.220  13.226  0.00  0.00    +0.145 HD
ATOM     37  OE1 GLN A   1     -48.297  14.975  13.055  0.00  0.00    -0.275 OA
ENDBRANCH  32  33
ENDBRANCH  31  32
ENDBRANCH  28  31
ENDBRANCH  24  28
ENDBRANCH  23  26
BRANCH  23  38
ATOM     38  CB  SER A   2     -44.108  10.785  15.428  0.00  0.00    +0.166 C 
BRANCH  38  39
ATOM     39  OG  SER A   2     -43.549  10.759  16.731  0.00  0.00    -0.380 OA
ATOM     40  H   SER A   2     -44.186  11.166  17.370  0.00  0.00    +0.211 HD
ENDBRANCH  38  39
ENDBRANCH  23  38
ENDBRANCH   1  23
TORSDOF 17
REMARK  Name = ../refined-set-2016/2jdu/2jdu_pocket.pdb
REMARK  99 active torsions:
REMARK  status: ('A' for Active; 'I' for Inactive)
REMARK    1  A    between atoms: _1  and  _3
REMARK    2  A    between atoms: _3  and  _4
REMARK    3  A    between atoms: _7  and  _9
REMARK    4  A    between atoms: _9  and  _10
REMARK    5  A    between atoms: _9  and  _12
REMARK    6  A    between atoms: _10  and  _11
REMARK    7  A    between atoms: _10  and  _18
REMARK    8  A    between atoms: _11  and  CA_248
REMARK    9  A    between atoms: _12  and  _13
REMARK   10  A    between atoms: _18  and  _20
REMARK   11  A    between atoms: _20  and  _21
REMARK   12  A    between atoms: _20  and  _23
REMARK   13  A    between atoms: _23  and  _24
REMARK   14  A    between atoms: _26  and  _28
REMARK   15  A    between atoms: _28  and  _29
REMARK   16  A    between atoms: _28  and  _31
REMARK   17  A    between atoms: _31  and  _32
REMARK   18  A    between atoms: _34  and  _36
REMARK   19  A    between atoms: _36  and  _37
REMARK   20  A    between atoms: _36  and  _39
REMARK   21  A    between atoms: _39  and  _40
REMARK   22  A    between atoms: _45  and  _47
REMARK   23  A    between atoms: _47  and  _48
REMARK   24  A    between atoms: _47  and  _50
REMARK   25  A    between atoms: _50  and  _51
REMARK   26  A    between atoms: _51  and  _52
REMARK   27  A    between atoms: _57  and  _59
REMARK   28  A    between atoms: _59  and  _60
REMARK   29  A    between atoms: _59  and  _62
REMARK   30  A    between atoms: _62  and  _63
REMARK   31  A    between atoms: _63  and  _64
REMARK   32  A    between atoms: _69  and  _71
REMARK   33  A    between atoms: _71  and  _72
REMARK   34  A    between atoms: _71  and  _74
REMARK   35  A    between atoms: _74  and  _75
REMARK   36  A    between atoms: _77  and  _79
REMARK   37  A    between atoms: _79  and  _80
REMARK   38  A    between atoms: _79  and  _82
REMARK   39  A    between atoms: _82  and  _83
REMARK   40  A    between atoms: _86  and  _88
REMARK   41  A    between atoms: _88  and  _89
REMARK   42  A    between atoms: _88  and  _91
REMARK   43  A    between atoms: _91  and  _92
REMARK   44  A    between atoms: _97  and  _99
REMARK   45  A    between atoms: _99  and  _100
REMARK   46  A    between atoms: _99  and  _102
REMARK   47  A    between atoms: _105  and  _107
REMARK   48  A    between atoms: _107  and  _108
REMARK   49  A    between atoms: _107  and  _110
REMARK   50  A    between atoms: _110  and  _111
REMARK   51  A    between atoms: _111  and  _112
REMARK   52  A    between atoms: _112  and  _113
REMARK   53  A    between atoms: _122  and  _124
REMARK   54  A    between atoms: _124  and  _125
REMARK   55  A    between atoms: _124  and  _127
REMARK   56  A    between atoms: _127  and  _128
REMARK   57  A    between atoms: _130  and  _132
REMARK   58  A    between atoms: _132  and  _133
REMARK   59  A    between atoms: _132  and  _135
REMARK   60  A    between atoms: _135  and  _136
REMARK   61  A    between atoms: _136  and  _137
REMARK   62  A    between atoms: _140  and  _142
REMARK   63  A    between atoms: _142  and  _143
REMARK   64  A    between atoms: _142  and  _145
REMARK   65  A    between atoms: _145  and  _146
REMARK   66  A    between atoms: _149  and  _151
REMARK   67  A    between atoms: _151  and  _152
REMARK   68  A    between atoms: _154  and  _156
REMARK   69  A    between atoms: _156  and  _157
REMARK   70  A    between atoms: _156  and  _159
REMARK   71  A    between atoms: _159  and  _160
REMARK   72  A    between atoms: _163  and  _165
REMARK   73  A    between atoms: _174  and  _177
REMARK   74  A    between atoms: _177  and  _178
REMARK   75  A    between atoms: _185  and  _186
REMARK   76  A    between atoms: _192  and  _194
REMARK   77  A    between atoms: _194  and  _195
REMARK   78  A    between atoms: _194  and  _197
REMARK   79  A    between atoms: _197  and  _198
REMARK   80  A    between atoms: _203  and  _204
REMARK   81  A    between atoms: _206  and  _208
REMARK   82  A    between atoms: _208  and  _209
REMARK   83  A    between atoms: _208  and  _211
REMARK   84  A    between atoms: _211  and  _212
REMARK   85  A    between atoms: _212  and  _213
REMARK   86  A    between atoms: _212  and  _214
REMARK   87  A    between atoms: _213  and  CA_248
REMARK   88  A    between atoms: _217  and  _219
REMARK   89  A    between atoms: _219  and  _220
REMARK   90  A    between atoms: _219  and  _222
REMARK   91  A    between atoms: _222  and  _223
REMARK   92  A    between atoms: _226  and  _228
REMARK   93  A    between atoms: _228  and  _229
REMARK   94  A    between atoms: _232  and  _234
REMARK   95  A    between atoms: _234  and  _235
REMARK   96  A    between atoms: _234  and  _237
REMARK   97  A    between atoms: _237  and  _238
REMARK   98  A    between atoms: _241  and  _243
REMARK   99  A    between atoms: _243  and  _244
REMARK                            x       y       z     vdW  Elec       q    Type
REMARK                         _______ _______ _______ _____ _____    ______ ____
ROOT
ATOM      1  CA  VAL A   1     -42.309  15.534   2.547  0.00  0.00    +0.133 C 
ENDROOT
BRANCH   1   2
ATOM      2  CB  VAL A   1     -41.707  16.498   3.593  0.00  0.00    +0.023 C 
ATOM      3  CG2 VAL A   1     -40.883  15.688   4.593  0.00  0.00    +0.002 C 
ATOM      4  CG1 VAL A   1     -42.794  17.311   4.270  0.00  0.00    +0.002 C 
ENDBRANCH   1   2
BRANCH   1   5
ATOM      5  N   VAL A   1     -41.243  14.933   1.751  0.00  0.00    -0.239 NA
ATOM      6  H   VAL A   1     -40.729  15.517   1.061  0.00  0.00    +0.142 HD
ENDBRANCH   1   5
BRANCH   1   7
ATOM      7  C   VAL A   1     -43.220  16.187   1.530  0.00  0.00    +0.224 C 
ATOM      8  O   VAL A   1     -42.776  17.111   0.822  0.00  0.00    -0.287 OA
ENDBRANCH   1   7
TORSDOF 3
REMARK  Name = ../refined-set-2016/2jdu/2jdu_pocket.pdb
REMARK  99 active torsions:
REMARK  status: ('A' for Active; 'I' for Inactive)
REMARK    1  A    between atoms: _1  and  _3
REMARK    2  A    between atoms: _3  and  _4
REMARK    3  A    between atoms: _7  and  _9
REMARK    4  A    between atoms: _9  and  _10
REMARK    5  A    between atoms: _9  and  _12
REMARK    6  A    between atoms: _10  and  _11
REMARK    7  A    between atoms: _10  and  _18
REMARK    8  A    between atoms: _11  and  CA_248
REMARK    9  A    between atoms: _12  and  _13
REMARK   10  A    between atoms: _18  and  _20
REMARK   11  A    between atoms: _20  and  _21
REMARK   12  A    between atoms: _20  and  _23
REMARK   13  A    between atoms: _23  and  _24
REMARK   14  A    between atoms: _26  and  _28
REMARK   15  A    between atoms: _28  and  _29
REMARK   16  A    between atoms: _28  and  _31
REMARK   17  A    between atoms: _31  and  _32
REMARK   18  A    between atoms: _34  and  _36
REMARK   19  A    between atoms: _36  and  _37
REMARK   20  A    between atoms: _36  and  _39
REMARK   21  A    between atoms: _39  and  _40
REMARK   22  A    between atoms: _45  and  _47
REMARK   23  A    between atoms: _47  and  _48
REMARK   24  A    between atoms: _47  and  _50
REMARK   25  A    between atoms: _50  and  _51
REMARK   26  A    between atoms: _51  and  _52
REMARK   27  A    between atoms: _57  and  _59
REMARK   28  A    between atoms: _59  and  _60
REMARK   29  A    between atoms: _59  and  _62
REMARK   30  A    between atoms: _62  and  _63
REMARK   31  A    between atoms: _63  and  _64
REMARK   32  A    between atoms: _69  and  _71
REMARK   33  A    between atoms: _71  and  _72
REMARK   34  A    between atoms: _71  and  _74
REMARK   35  A    between atoms: _74  and  _75
REMARK   36  A    between atoms: _77  and  _79
REMARK   37  A    between atoms: _79  and  _80
REMARK   38  A    between atoms: _79  and  _82
REMARK   39  A    between atoms: _82  and  _83
REMARK   40  A    between atoms: _86  and  _88
REMARK   41  A    between atoms: _88  and  _89
REMARK   42  A    between atoms: _88  and  _91
REMARK   43  A    between atoms: _91  and  _92
REMARK   44  A    between atoms: _97  and  _99
REMARK   45  A    between atoms: _99  and  _100
REMARK   46  A    between atoms: _99  and  _102
REMARK   47  A    between atoms: _105  and  _107
REMARK   48  A    between atoms: _107  and  _108
REMARK   49  A    between atoms: _107  and  _110
REMARK   50  A    between atoms: _110  and  _111
REMARK   51  A    between atoms: _111  and  _112
REMARK   52  A    between atoms: _112  and  _113
REMARK   53  A    between atoms: _122  and  _124
REMARK   54  A    between atoms: _124  and  _125
REMARK   55  A    between atoms: _124  and  _127
REMARK   56  A    between atoms: _127  and  _128
REMARK   57  A    between atoms: _130  and  _132
REMARK   58  A    between atoms: _132  and  _133
REMARK   59  A    between atoms: _132  and  _135
REMARK   60  A    between atoms: _135  and  _136
REMARK   61  A    between atoms: _136  and  _137
REMARK   62  A    between atoms: _140  and  _142
REMARK   63  A    between atoms: _142  and  _143
REMARK   64  A    between atoms: _142  and  _145
REMARK   65  A    between atoms: _145  and  _146
REMARK   66  A    between atoms: _149  and  _151
REMARK   67  A    between atoms: _151  and  _152
REMARK   68  A    between atoms: _154  and  _156
REMARK   69  A    between atoms: _156  and  _157
REMARK   70  A    between atoms: _156  and  _159
REMARK   71  A    between atoms: _159  and  _160
REMARK   72  A    between atoms: _163  and  _165
REMARK   73  A    between atoms: _174  and  _177
REMARK   74  A    between atoms: _177  and  _178
REMARK   75  A    between atoms: _185  and  _186
REMARK   76  A    between atoms: _192  and  _194
REMARK   77  A    between atoms: _194  and  _195
REMARK   78  A    between atoms: _194  and  _197
REMARK   79  A    between atoms: _197  and  _198
REMARK   80  A    between atoms: _203  and  _204
REMARK   81  A    between atoms: _206  and  _208
REMARK   82  A    between atoms: _208  and  _209
REMARK   83  A    between atoms: _208  and  _211
REMARK   84  A    between atoms: _211  and  _212
REMARK   85  A    between atoms: _212  and  _213
REMARK   86  A    between atoms: _212  and  _214
REMARK   87  A    between atoms: _213  and  CA_248
REMARK   88  A    between atoms: _217  and  _219
REMARK   89  A    between atoms: _219  and  _220
REMARK   90  A    between atoms: _219  and  _222
REMARK   91  A    between atoms: _222  and  _223
REMARK   92  A    between atoms: _226  and  _228
REMARK   93  A    between atoms: _228  and  _229
REMARK   94  A    between atoms: _232  and  _234
REMARK   95  A    between atoms: _234  and  _235
REMARK   96  A    between atoms: _234  and  _237
REMARK   97  A    between atoms: _237  and  _238
REMARK   98  A    between atoms: _241  and  _243
REMARK   99  A    between atoms: _243  and  _244
REMARK                            x       y       z     vdW  Elec       q    Type
REMARK                         _______ _______ _______ _____ _____    ______ ____
ROOT
ATOM      1  NE  ARG A   1     -42.677  20.748   0.550  0.00  0.00    -0.265 N 
ATOM      2  CZ  ARG A   1     -41.977  20.910   1.672  0.00  0.00    +0.342 C 
ATOM      3  NH2 ARG A   1     -42.555  20.731   2.853  0.00  0.00    -0.292 N 
ATOM      4 HH21 ARG A   1     -42.004  20.859   3.726  0.00  0.00    +0.255 HD
ATOM      5 HH22 ARG A   1     -43.559  20.463   2.906  0.00  0.00    +0.255 HD
ATOM      6  NH1 ARG A   1     -40.699  21.261   1.623  0.00  0.00    -0.292 N 
ATOM      7 HH11 ARG A   1     -40.160  21.385   2.504  0.00  0.00    +0.255 HD
ATOM      8 HH12 ARG A   1     -40.236  21.412   0.704  0.00  0.00    +0.255 HD
ATOM      9  HE  ARG A   1     -43.680  20.490   0.643  0.00  0.00    +0.259 HD
ENDROOT
BRANCH   1  10
ATOM     10  CD  ARG A   1     -42.141  20.906  -0.808  0.00  0.00    +0.174 C 
BRANCH  10  11
ATOM     11  CG  ARG A   1     -41.995  19.548  -1.530  0.00  0.00    +0.045 C 
BRANCH  11  12
ATOM     12  CB  ARG A   1     -40.720  18.749  -1.131  0.00  0.00    +0.029 C 
BRANCH  12  13
ATOM     13  CA  ARG A   1     -40.524  17.454  -1.932  0.00  0.00    +0.133 C 
BRANCH  13  14
ATOM     14  N   ARG A   1     -41.782  16.716  -1.916  0.00  0.00    -0.239 NA
ATOM     15  H   ARG A   1     -42.392  16.790  -1.077  0.00  0.00    +0.142 HD
ENDBRANCH  13  14
BRANCH  13  16
ATOM     16  C   ARG A   1     -39.390  16.589  -1.322  0.00  0.00    +0.224 C 
ATOM     17  O   ARG A   1     -39.476  16.219  -0.152  0.00  0.00    -0.287 OA
ENDBRANCH  13  16
ENDBRANCH  12  13
ENDBRANCH  11  12
ENDBRANCH  10  11
ENDBRANCH   1  10
TORSDOF 6
REMARK  Name = ../refined-set-2016/2jdu/2jdu_pocket.pdb
REMARK  99 active torsions:
REMARK  status: ('A' for Active; 'I' for Inactive)
REMARK    1  A    between atoms: _1  and  _3
REMARK    2  A    between atoms: _3  and  _4
REMARK    3  A    between atoms: _7  and  _9
REMARK    4  A    between atoms: _9  and  _10
REMARK    5  A    between atoms: _9  and  _12
REMARK    6  A    between atoms: _10  and  _11
REMARK    7  A    between atoms: _10  and  _18
REMARK    8  A    between atoms: _11  and  CA_248
REMARK    9  A    between atoms: _12  and  _13
REMARK   10  A    between atoms: _18  and  _20
REMARK   11  A    between atoms: _20  and  _21
REMARK   12  A    between atoms: _20  and  _23
REMARK   13  A    between atoms: _23  and  _24
REMARK   14  A    between atoms: _26  and  _28
REMARK   15  A    between atoms: _28  and  _29
REMARK   16  A    between atoms: _28  and  _31
REMARK   17  A    between atoms: _31  and  _32
REMARK   18  A    between atoms: _34  and  _36
REMARK   19  A    between atoms: _36  and  _37
REMARK   20  A    between atoms: _36  and  _39
REMARK   21  A    between atoms: _39  and  _40
REMARK   22  A    between atoms: _45  and  _47
REMARK   23  A    between atoms: _47  and  _48
REMARK   24  A    between atoms: _47  and  _50
REMARK   25  A    between atoms: _50  and  _51
REMARK   26  A    between atoms: _51  and  _52
REMARK   27  A    between atoms: _57  and  _59
REMARK   28  A    between atoms: _59  and  _60
REMARK   29  A    between atoms: _59  and  _62
REMARK   30  A    between atoms: _62  and  _63
REMARK   31  A    between atoms: _63  and  _64
REMARK   32  A    between atoms: _69  and  _71
REMARK   33  A    between atoms: _71  and  _72
REMARK   34  A    between atoms: _71  and  _74
REMARK   35  A    between atoms: _74  and  _75
REMARK   36  A    between atoms: _77  and  _79
REMARK   37  A    between atoms: _79  and  _80
REMARK   38  A    between atoms: _79  and  _82
REMARK   39  A    between atoms: _82  and  _83
REMARK   40  A    between atoms: _86  and  _88
REMARK   41  A    between atoms: _88  and  _89
REMARK   42  A    between atoms: _88  and  _91
REMARK   43  A    between atoms: _91  and  _92
REMARK   44  A    between atoms: _97  and  _99
REMARK   45  A    between atoms: _99  and  _100
REMARK   46  A    between atoms: _99  and  _102
REMARK   47  A    between atoms: _105  and  _107
REMARK   48  A    between atoms: _107  and  _108
REMARK   49  A    between atoms: _107  and  _110
REMARK   50  A    between atoms: _110  and  _111
REMARK   51  A    between atoms: _111  and  _112
REMARK   52  A    between atoms: _112  and  _113
REMARK   53  A    between atoms: _122  and  _124
REMARK   54  A    between atoms: _124  and  _125
REMARK   55  A    between atoms: _124  and  _127
REMARK   56  A    between atoms: _127  and  _128
REMARK   57  A    between atoms: _130  and  _132
REMARK   58  A    between atoms: _132  and  _133
REMARK   59  A    between atoms: _132  and  _135
REMARK   60  A    between atoms: _135  and  _136
REMARK   61  A    between atoms: _136  and  _137
REMARK   62  A    between atoms: _140  and  _142
REMARK   63  A    between atoms: _142  and  _143
REMARK   64  A    between atoms: _142  and  _145
REMARK   65  A    between atoms: _145  and  _146
REMARK   66  A    between atoms: _149  and  _151
REMARK   67  A    between atoms: _151  and  _152
REMARK   68  A    between atoms: _154  and  _156
REMARK   69  A    between atoms: _156  and  _157
REMARK   70  A    between atoms: _156  and  _159
REMARK   71  A    between atoms: _159  and  _160
REMARK   72  A    between atoms: _163  and  _165
REMARK   73  A    between atoms: _174  and  _177
REMARK   74  A    between atoms: _177  and  _178
REMARK   75  A    between atoms: _185  and  _186
REMARK   76  A    between atoms: _192  and  _194
REMARK   77  A    between atoms: _194  and  _195
REMARK   78  A    between atoms: _194  and  _197
REMARK   79  A    between atoms: _197  and  _198
REMARK   80  A    between atoms: _203  and  _204
REMARK   81  A    between atoms: _206  and  _208
REMARK   82  A    between atoms: _208  and  _209
REMARK   83  A    between atoms: _208  and  _211
REMARK   84  A    between atoms: _211  and  _212
REMARK   85  A    between atoms: _212  and  _213
REMARK   86  A    between atoms: _212  and  _214
REMARK   87  A    between atoms: _213  and  CA_248
REMARK   88  A    between atoms: _217  and  _219
REMARK   89  A    between atoms: _219  and  _220
REMARK   90  A    between atoms: _219  and  _222
REMARK   91  A    between atoms: _222  and  _223
REMARK   92  A    between atoms: _226  and  _228
REMARK   93  A    between atoms: _228  and  _229
REMARK   94  A    between atoms: _232  and  _234
REMARK   95  A    between atoms: _234  and  _235
REMARK   96  A    between atoms: _234  and  _237
REMARK   97  A    between atoms: _237  and  _238
REMARK   98  A    between atoms: _241  and  _243
REMARK   99  A    between atoms: _243  and  _244
REMARK                            x       y       z     vdW  Elec       q    Type
REMARK                         _______ _______ _______ _____ _____    ______ ____
ROOT
ATOM      1  C   LEU A   1     -36.352  15.275  18.676  0.00  0.00    +0.238 C 
ATOM      2  O   LEU A   1     -35.809  16.346  18.955  0.00  0.00    -0.274 OA
ATOM      3  N   GLY A   2     -37.586  15.201  18.184  0.00  0.00    -0.294 N 
ATOM      4  H   GLY A   2     -37.959  14.291  17.846  0.00  0.00    +0.150 HD
ENDROOT
BRANCH   1   5
ATOM      5  CA  LEU A   1     -35.634  13.945  18.917  0.00  0.00    +0.145 C 
BRANCH   5   6
ATOM      6  N   LEU A   1     -34.258  14.232  19.373  0.00  0.00    -0.238 NA
ATOM      7  H   LEU A   1     -34.108  14.574  20.344  0.00  0.00    +0.142 HD
ENDBRANCH   5   6
BRANCH   5   8
ATOM      8  CB  LEU A   1     -36.418  13.158  19.975  0.00  0.00    +0.026 C 
BRANCH   8   9
ATOM      9  CG  LEU A   1     -35.738  11.859  20.396  0.00  0.00    +0.002 C 
ATOM     10  CD2 LEU A   1     -36.720  11.116  21.337  0.00  0.00    +0.000 C 
ATOM     11  CD1 LEU A   1     -35.337  11.005  19.234  0.00  0.00    +0.000 C 
ENDBRANCH   8   9
ENDBRANCH   5   8
ENDBRANCH   1   5
BRANCH   3  12
ATOM     12  CA  GLY A   2     -38.424  16.414  18.119  0.00  0.00    +0.205 C 
BRANCH  12  13
ATOM     13  C   GLY A   2     -38.343  17.151  16.811  0.00  0.00    +0.385 C 
ATOM     14  OXT GLY A   2     -39.248  17.967  16.514  0.00  0.00    -0.244 OA
ATOM     15  O   GLY A   2     -37.363  16.953  16.065  0.00  0.00    -0.244 OA
ENDBRANCH  12  13
ENDBRANCH   3  12
TORSDOF 6
REMARK  Name = ../refined-set-2016/2jdu/2jdu_pocket.pdb
REMARK  99 active torsions:
REMARK  status: ('A' for Active; 'I' for Inactive)
REMARK    1  A    between atoms: _1  and  _3
REMARK    2  A    between atoms: _3  and  _4
REMARK    3  A    between atoms: _7  and  _9
REMARK    4  A    between atoms: _9  and  _10
REMARK    5  A    between atoms: _9  and  _12
REMARK    6  A    between atoms: _10  and  _11
REMARK    7  A    between atoms: _10  and  _18
REMARK    8  A    between atoms: _11  and  CA_248
REMARK    9  A    between atoms: _12  and  _13
REMARK   10  A    between atoms: _18  and  _20
REMARK   11  A    between atoms: _20  and  _21
REMARK   12  A    between atoms: _20  and  _23
REMARK   13  A    between atoms: _23  and  _24
REMARK   14  A    between atoms: _26  and  _28
REMARK   15  A    between atoms: _28  and  _29
REMARK   16  A    between atoms: _28  and  _31
REMARK   17  A    between atoms: _31  and  _32
REMARK   18  A    between atoms: _34  and  _36
REMARK   19  A    between atoms: _36  and  _37
REMARK   20  A    between atoms: _36  and  _39
REMARK   21  A    between atoms: _39  and  _40
REMARK   22  A    between atoms: _45  and  _47
REMARK   23  A    between atoms: _47  and  _48
REMARK   24  A    between atoms: _47  and  _50
REMARK   25  A    between atoms: _50  and  _51
REMARK   26  A    between atoms: _51  and  _52
REMARK   27  A    between atoms: _57  and  _59
REMARK   28  A    between atoms: _59  and  _60
REMARK   29  A    between atoms: _59  and  _62
REMARK   30  A    between atoms: _62  and  _63
REMARK   31  A    between atoms: _63  and  _64
REMARK   32  A    between atoms: _69  and  _71
REMARK   33  A    between atoms: _71  and  _72
REMARK   34  A    between atoms: _71  and  _74
REMARK   35  A    between atoms: _74  and  _75
REMARK   36  A    between atoms: _77  and  _79
REMARK   37  A    between atoms: _79  and  _80
REMARK   38  A    between atoms: _79  and  _82
REMARK   39  A    between atoms: _82  and  _83
REMARK   40  A    between atoms: _86  and  _88
REMARK   41  A    between atoms: _88  and  _89
REMARK   42  A    between atoms: _88  and  _91
REMARK   43  A    between atoms: _91  and  _92
REMARK   44  A    between atoms: _97  and  _99
REMARK   45  A    between atoms: _99  and  _100
REMARK   46  A    between atoms: _99  and  _102
REMARK   47  A    between atoms: _105  and  _107
REMARK   48  A    between atoms: _107  and  _108
REMARK   49  A    between atoms: _107  and  _110
REMARK   50  A    between atoms: _110  and  _111
REMARK   51  A    between atoms: _111  and  _112
REMARK   52  A    between atoms: _112  and  _113
REMARK   53  A    between atoms: _122  and  _124
REMARK   54  A    between atoms: _124  and  _125
REMARK   55  A    between atoms: _124  and  _127
REMARK   56  A    between atoms: _127  and  _128
REMARK   57  A    between atoms: _130  and  _132
REMARK   58  A    between atoms: _132  and  _133
REMARK   59  A    between atoms: _132  and  _135
REMARK   60  A    between atoms: _135  and  _136
REMARK   61  A    between atoms: _136  and  _137
REMARK   62  A    between atoms: _140  and  _142
REMARK   63  A    between atoms: _142  and  _143
REMARK   64  A    between atoms: _142  and  _145
REMARK   65  A    between atoms: _145  and  _146
REMARK   66  A    between atoms: _149  and  _151
REMARK   67  A    between atoms: _151  and  _152
REMARK   68  A    between atoms: _154  and  _156
REMARK   69  A    between atoms: _156  and  _157
REMARK   70  A    between atoms: _156  and  _159
REMARK   71  A    between atoms: _159  and  _160
REMARK   72  A    between atoms: _163  and  _165
REMARK   73  A    between atoms: _174  and  _177
REMARK   74  A    between atoms: _177  and  _178
REMARK   75  A    between atoms: _185  and  _186
REMARK   76  A    between atoms: _192  and  _194
REMARK   77  A    between atoms: _194  and  _195
REMARK   78  A    between atoms: _194  and  _197
REMARK   79  A    between atoms: _197  and  _198
REMARK   80  A    between atoms: _203  and  _204
REMARK   81  A    between atoms: _206  and  _208
REMARK   82  A    between atoms: _208  and  _209
REMARK   83  A    between atoms: _208  and  _211
REMARK   84  A    between atoms: _211  and  _212
REMARK   85  A    between atoms: _212  and  _213
REMARK   86  A    between atoms: _212  and  _214
REMARK   87  A    between atoms: _213  and  CA_248
REMARK   88  A    between atoms: _217  and  _219
REMARK   89  A    between atoms: _219  and  _220
REMARK   90  A    between atoms: _219  and  _222
REMARK   91  A    between atoms: _222  and  _223
REMARK   92  A    between atoms: _226  and  _228
REMARK   93  A    between atoms: _228  and  _229
REMARK   94  A    between atoms: _232  and  _234
REMARK   95  A    between atoms: _234  and  _235
REMARK   96  A    between atoms: _234  and  _237
REMARK   97  A    between atoms: _237  and  _238
REMARK   98  A    between atoms: _241  and  _243
REMARK   99  A    between atoms: _243  and  _244
REMARK                            x       y       z     vdW  Elec       q    Type
REMARK                         _______ _______ _______ _____ _____    ______ ____
ROOT
ATOM      1  O   HOH     1     -44.283  23.838   8.683  0.00  0.00    +0.000 OA
ENDROOT
TORSDOF 0
REMARK  Name = ../refined-set-2016/2jdu/2jdu_pocket.pdb
REMARK  99 active torsions:
REMARK  status: ('A' for Active; 'I' for Inactive)
REMARK    1  A    between atoms: _1  and  _3
REMARK    2  A    between atoms: _3  and  _4
REMARK    3  A    between atoms: _7  and  _9
REMARK    4  A    between atoms: _9  and  _10
REMARK    5  A    between atoms: _9  and  _12
REMARK    6  A    between atoms: _10  and  _11
REMARK    7  A    between atoms: _10  and  _18
REMARK    8  A    between atoms: _11  and  CA_248
REMARK    9  A    between atoms: _12  and  _13
REMARK   10  A    between atoms: _18  and  _20
REMARK   11  A    between atoms: _20  and  _21
REMARK   12  A    between atoms: _20  and  _23
REMARK   13  A    between atoms: _23  and  _24
REMARK   14  A    between atoms: _26  and  _28
REMARK   15  A    between atoms: _28  and  _29
REMARK   16  A    between atoms: _28  and  _31
REMARK   17  A    between atoms: _31  and  _32
REMARK   18  A    between atoms: _34  and  _36
REMARK   19  A    between atoms: _36  and  _37
REMARK   20  A    between atoms: _36  and  _39
REMARK   21  A    between atoms: _39  and  _40
REMARK   22  A    between atoms: _45  and  _47
REMARK   23  A    between atoms: _47  and  _48
REMARK   24  A    between atoms: _47  and  _50
REMARK   25  A    between atoms: _50  and  _51
REMARK   26  A    between atoms: _51  and  _52
REMARK   27  A    between atoms: _57  and  _59
REMARK   28  A    between atoms: _59  and  _60
REMARK   29  A    between atoms: _59  and  _62
REMARK   30  A    between atoms: _62  and  _63
REMARK   31  A    between atoms: _63  and  _64
REMARK   32  A    between atoms: _69  and  _71
REMARK   33  A    between atoms: _71  and  _72
REMARK   34  A    between atoms: _71  and  _74
REMARK   35  A    between atoms: _74  and  _75
REMARK   36  A    between atoms: _77  and  _79
REMARK   37  A    between atoms: _79  and  _80
REMARK   38  A    between atoms: _79  and  _82
REMARK   39  A    between atoms: _82  and  _83
REMARK   40  A    between atoms: _86  and  _88
REMARK   41  A    between atoms: _88  and  _89
REMARK   42  A    between atoms: _88  and  _91
REMARK   43  A    between atoms: _91  and  _92
REMARK   44  A    between atoms: _97  and  _99
REMARK   45  A    between atoms: _99  and  _100
REMARK   46  A    between atoms: _99  and  _102
REMARK   47  A    between atoms: _105  and  _107
REMARK   48  A    between atoms: _107  and  _108
REMARK   49  A    between atoms: _107  and  _110
REMARK   50  A    between atoms: _110  and  _111
REMARK   51  A    between atoms: _111  and  _112
REMARK   52  A    between atoms: _112  and  _113
REMARK   53  A    between atoms: _122  and  _124
REMARK   54  A    between atoms: _124  and  _125
REMARK   55  A    between atoms: _124  and  _127
REMARK   56  A    between atoms: _127  and  _128
REMARK   57  A    between atoms: _130  and  _132
REMARK   58  A    between atoms: _132  and  _133
REMARK   59  A    between atoms: _132  and  _135
REMARK   60  A    between atoms: _135  and  _136
REMARK   61  A    between atoms: _136  and  _137
REMARK   62  A    between atoms: _140  and  _142
REMARK   63  A    between atoms: _142  and  _143
REMARK   64  A    between atoms: _142  and  _145
REMARK   65  A    between atoms: _145  and  _146
REMARK   66  A    between atoms: _149  and  _151
REMARK   67  A    between atoms: _151  and  _152
REMARK   68  A    between atoms: _154  and  _156
REMARK   69  A    between atoms: _156  and  _157
REMARK   70  A    between atoms: _156  and  _159
REMARK   71  A    between atoms: _159  and  _160
REMARK   72  A    between atoms: _163  and  _165
REMARK   73  A    between atoms: _174  and  _177
REMARK   74  A    between atoms: _177  and  _178
REMARK   75  A    between atoms: _185  and  _186
REMARK   76  A    between atoms: _192  and  _194
REMARK   77  A    between atoms: _194  and  _195
REMARK   78  A    between atoms: _194  and  _197
REMARK   79  A    between atoms: _197  and  _198
REMARK   80  A    between atoms: _203  and  _204
REMARK   81  A    between atoms: _206  and  _208
REMARK   82  A    between atoms: _208  and  _209
REMARK   83  A    between atoms: _208  and  _211
REMARK   84  A    between atoms: _211  and  _212
REMARK   85  A    between atoms: _212  and  _213
REMARK   86  A    between atoms: _212  and  _214
REMARK   87  A    between atoms: _213  and  CA_248
REMARK   88  A    between atoms: _217  and  _219
REMARK   89  A    between atoms: _219  and  _220
REMARK   90  A    between atoms: _219  and  _222
REMARK   91  A    between atoms: _222  and  _223
REMARK   92  A    between atoms: _226  and  _228
REMARK   93  A    between atoms: _228  and  _229
REMARK   94  A    between atoms: _232  and  _234
REMARK   95  A    between atoms: _234  and  _235
REMARK   96  A    between atoms: _234  and  _237
REMARK   97  A    between atoms: _237  and  _238
REMARK   98  A    between atoms: _241  and  _243
REMARK   99  A    between atoms: _243  and  _244
REMARK                            x       y       z     vdW  Elec       q    Type
REMARK                         _______ _______ _______ _____ _____    ______ ____
ROOT
ATOM      1  O   HOH     1     -39.796  24.319   7.908  0.00  0.00    +0.000 OA
ENDROOT
TORSDOF 0
REMARK  Name = ../refined-set-2016/2jdu/2jdu_pocket.pdb
REMARK  99 active torsions:
REMARK  status: ('A' for Active; 'I' for Inactive)
REMARK    1  A    between atoms: _1  and  _3
REMARK    2  A    between atoms: _3  and  _4
REMARK    3  A    between atoms: _7  and  _9
REMARK    4  A    between atoms: _9  and  _10
REMARK    5  A    between atoms: _9  and  _12
REMARK    6  A    between atoms: _10  and  _11
REMARK    7  A    between atoms: _10  and  _18
REMARK    8  A    between atoms: _11  and  CA_248
REMARK    9  A    between atoms: _12  and  _13
REMARK   10  A    between atoms: _18  and  _20
REMARK   11  A    between atoms: _20  and  _21
REMARK   12  A    between atoms: _20  and  _23
REMARK   13  A    between atoms: _23  and  _24
REMARK   14  A    between atoms: _26  and  _28
REMARK   15  A    between atoms: _28  and  _29
REMARK   16  A    between atoms: _28  and  _31
REMARK   17  A    between atoms: _31  and  _32
REMARK   18  A    between atoms: _34  and  _36
REMARK   19  A    between atoms: _36  and  _37
REMARK   20  A    between atoms: _36  and  _39
REMARK   21  A    between atoms: _39  and  _40
REMARK   22  A    between atoms: _45  and  _47
REMARK   23  A    between atoms: _47  and  _48
REMARK   24  A    between atoms: _47  and  _50
REMARK   25  A    between atoms: _50  and  _51
REMARK   26  A    between atoms: _51  and  _52
REMARK   27  A    between atoms: _57  and  _59
REMARK   28  A    between atoms: _59  and  _60
REMARK   29  A    between atoms: _59  and  _62
REMARK   30  A    between atoms: _62  and  _63
REMARK   31  A    between atoms: _63  and  _64
REMARK   32  A    between atoms: _69  and  _71
REMARK   33  A    between atoms: _71  and  _72
REMARK   34  A    between atoms: _71  and  _74
REMARK   35  A    between atoms: _74  and  _75
REMARK   36  A    between atoms: _77  and  _79
REMARK   37  A    between atoms: _79  and  _80
REMARK   38  A    between atoms: _79  and  _82
REMARK   39  A    between atoms: _82  and  _83
REMARK   40  A    between atoms: _86  and  _88
REMARK   41  A    between atoms: _88  and  _89
REMARK   42  A    between atoms: _88  and  _91
REMARK   43  A    between atoms: _91  and  _92
REMARK   44  A    between atoms: _97  and  _99
REMARK   45  A    between atoms: _99  and  _100
REMARK   46  A    between atoms: _99  and  _102
REMARK   47  A    between atoms: _105  and  _107
REMARK   48  A    between atoms: _107  and  _108
REMARK   49  A    between atoms: _107  and  _110
REMARK   50  A    between atoms: _110  and  _111
REMARK   51  A    between atoms: _111  and  _112
REMARK   52  A    between atoms: _112  and  _113
REMARK   53  A    between atoms: _122  and  _124
REMARK   54  A    between atoms: _124  and  _125
REMARK   55  A    between atoms: _124  and  _127
REMARK   56  A    between atoms: _127  and  _128
REMARK   57  A    between atoms: _130  and  _132
REMARK   58  A    between atoms: _132  and  _133
REMARK   59  A    between atoms: _132  and  _135
REMARK   60  A    between atoms: _135  and  _136
REMARK   61  A    between atoms: _136  and  _137
REMARK   62  A    between atoms: _140  and  _142
REMARK   63  A    between atoms: _142  and  _143
REMARK   64  A    between atoms: _142  and  _145
REMARK   65  A    between atoms: _145  and  _146
REMARK   66  A    between atoms: _149  and  _151
REMARK   67  A    between atoms: _151  and  _152
REMARK   68  A    between atoms: _154  and  _156
REMARK   69  A    between atoms: _156  and  _157
REMARK   70  A    between atoms: _156  and  _159
REMARK   71  A    between atoms: _159  and  _160
REMARK   72  A    between atoms: _163  and  _165
REMARK   73  A    between atoms: _174  and  _177
REMARK   74  A    between atoms: _177  and  _178
REMARK   75  A    between atoms: _185  and  _186
REMARK   76  A    between atoms: _192  and  _194
REMARK   77  A    between atoms: _194  and  _195
REMARK   78  A    between atoms: _194  and  _197
REMARK   79  A    between atoms: _197  and  _198
REMARK   80  A    between atoms: _203  and  _204
REMARK   81  A    between atoms: _206  and  _208
REMARK   82  A    between atoms: _208  and  _209
REMARK   83  A    between atoms: _208  and  _211
REMARK   84  A    between atoms: _211  and  _212
REMARK   85  A    between atoms: _212  and  _213
REMARK   86  A    between atoms: _212  and  _214
REMARK   87  A    between atoms: _213  and  CA_248
REMARK   88  A    between atoms: _217  and  _219
REMARK   89  A    between atoms: _219  and  _220
REMARK   90  A    between atoms: _219  and  _222
REMARK   91  A    between atoms: _222  and  _223
REMARK   92  A    between atoms: _226  and  _228
REMARK   93  A    between atoms: _228  and  _229
REMARK   94  A    between atoms: _232  and  _234
REMARK   95  A    between atoms: _234  and  _235
REMARK   96  A    between atoms: _234  and  _237
REMARK   97  A    between atoms: _237  and  _238
REMARK   98  A    between atoms: _241  and  _243
REMARK   99  A    between atoms: _243  and  _244
REMARK                            x       y       z     vdW  Elec       q    Type
REMARK                         _______ _______ _______ _____ _____    ______ ____
ROOT
ATOM      1  O   HOH     1     -42.995  13.338  11.346  0.00  0.00    +0.000 OA
ENDROOT
TORSDOF 0
REMARK  Name = ../refined-set-2016/2jdu/2jdu_pocket.pdb
REMARK  99 active torsions:
REMARK  status: ('A' for Active; 'I' for Inactive)
REMARK    1  A    between atoms: _1  and  _3
REMARK    2  A    between atoms: _3  and  _4
REMARK    3  A    between atoms: _7  and  _9
REMARK    4  A    between atoms: _9  and  _10
REMARK    5  A    between atoms: _9  and  _12
REMARK    6  A    between atoms: _10  and  _11
REMARK    7  A    between atoms: _10  and  _18
REMARK    8  A    between atoms: _11  and  CA_248
REMARK    9  A    between atoms: _12  and  _13
REMARK   10  A    between atoms: _18  and  _20
REMARK   11  A    between atoms: _20  and  _21
REMARK   12  A    between atoms: _20  and  _23
REMARK   13  A    between atoms: _23  and  _24
REMARK   14  A    between atoms: _26  and  _28
REMARK   15  A    between atoms: _28  and  _29
REMARK   16  A    between atoms: _28  and  _31
REMARK   17  A    between atoms: _31  and  _32
REMARK   18  A    between atoms: _34  and  _36
REMARK   19  A    between atoms: _36  and  _37
REMARK   20  A    between atoms: _36  and  _39
REMARK   21  A    between atoms: _39  and  _40
REMARK   22  A    between atoms: _45  and  _47
REMARK   23  A    between atoms: _47  and  _48
REMARK   24  A    between atoms: _47  and  _50
REMARK   25  A    between atoms: _50  and  _51
REMARK   26  A    between atoms: _51  and  _52
REMARK   27  A    between atoms: _57  and  _59
REMARK   28  A    between atoms: _59  and  _60
REMARK   29  A    between atoms: _59  and  _62
REMARK   30  A    between atoms: _62  and  _63
REMARK   31  A    between atoms: _63  and  _64
REMARK   32  A    between atoms: _69  and  _71
REMARK   33  A    between atoms: _71  and  _72
REMARK   34  A    between atoms: _71  and  _74
REMARK   35  A    between atoms: _74  and  _75
REMARK   36  A    between atoms: _77  and  _79
REMARK   37  A    between atoms: _79  and  _80
REMARK   38  A    between atoms: _79  and  _82
REMARK   39  A    between atoms: _82  and  _83
REMARK   40  A    between atoms: _86  and  _88
REMARK   41  A    between atoms: _88  and  _89
REMARK   42  A    between atoms: _88  and  _91
REMARK   43  A    between atoms: _91  and  _92
REMARK   44  A    between atoms: _97  and  _99
REMARK   45  A    between atoms: _99  and  _100
REMARK   46  A    between atoms: _99  and  _102
REMARK   47  A    between atoms: _105  and  _107
REMARK   48  A    between atoms: _107  and  _108
REMARK   49  A    between atoms: _107  and  _110
REMARK   50  A    between atoms: _110  and  _111
REMARK   51  A    between atoms: _111  and  _112
REMARK   52  A    between atoms: _112  and  _113
REMARK   53  A    between atoms: _122  and  _124
REMARK   54  A    between atoms: _124  and  _125
REMARK   55  A    between atoms: _124  and  _127
REMARK   56  A    between atoms: _127  and  _128
REMARK   57  A    between atoms: _130  and  _132
REMARK   58  A    between atoms: _132  and  _133
REMARK   59  A    between atoms: _132  and  _135
REMARK   60  A    between atoms: _135  and  _136
REMARK   61  A    between atoms: _136  and  _137
REMARK   62  A    between atoms: _140  and  _142
REMARK   63  A    between atoms: _142  and  _143
REMARK   64  A    between atoms: _142  and  _145
REMARK   65  A    between atoms: _145  and  _146
REMARK   66  A    between atoms: _149  and  _151
REMARK   67  A    between atoms: _151  and  _152
REMARK   68  A    between atoms: _154  and  _156
REMARK   69  A    between atoms: _156  and  _157
REMARK   70  A    between atoms: _156  and  _159
REMARK   71  A    between atoms: _159  and  _160
REMARK   72  A    between atoms: _163  and  _165
REMARK   73  A    between atoms: _174  and  _177
REMARK   74  A    between atoms: _177  and  _178
REMARK   75  A    between atoms: _185  and  _186
REMARK   76  A    between atoms: _192  and  _194
REMARK   77  A    between atoms: _194  and  _195
REMARK   78  A    between atoms: _194  and  _197
REMARK   79  A    between atoms: _197  and  _198
REMARK   80  A    between atoms: _203  and  _204
REMARK   81  A    between atoms: _206  and  _208
REMARK   82  A    between atoms: _208  and  _209
REMARK   83  A    between atoms: _208  and  _211
REMARK   84  A    between atoms: _211  and  _212
REMARK   85  A    between atoms: _212  and  _213
REMARK   86  A    between atoms: _212  and  _214
REMARK   87  A    between atoms: _213  and  CA_248
REMARK   88  A    between atoms: _217  and  _219
REMARK   89  A    between atoms: _219  and  _220
REMARK   90  A    between atoms: _219  and  _222
REMARK   91  A    between atoms: _222  and  _223
REMARK   92  A    between atoms: _226  and  _228
REMARK   93  A    between atoms: _228  and  _229
REMARK   94  A    between atoms: _232  and  _234
REMARK   95  A    between atoms: _234  and  _235
REMARK   96  A    between atoms: _234  and  _237
REMARK   97  A    between atoms: _237  and  _238
REMARK   98  A    between atoms: _241  and  _243
REMARK   99  A    between atoms: _243  and  _244
REMARK                            x       y       z     vdW  Elec       q    Type
REMARK                         _______ _______ _______ _____ _____    ______ ____
ROOT
ATOM      1  O   HOH     1     -43.469  22.979  13.133  0.00  0.00    +0.000 OA
ENDROOT
TORSDOF 0
REMARK  Name = ../refined-set-2016/2jdu/2jdu_pocket.pdb
REMARK  99 active torsions:
REMARK  status: ('A' for Active; 'I' for Inactive)
REMARK    1  A    between atoms: _1  and  _3
REMARK    2  A    between atoms: _3  and  _4
REMARK    3  A    between atoms: _7  and  _9
REMARK    4  A    between atoms: _9  and  _10
REMARK    5  A    between atoms: _9  and  _12
REMARK    6  A    between atoms: _10  and  _11
REMARK    7  A    between atoms: _10  and  _18
REMARK    8  A    between atoms: _11  and  CA_248
REMARK    9  A    between atoms: _12  and  _13
REMARK   10  A    between atoms: _18  and  _20
REMARK   11  A    between atoms: _20  and  _21
REMARK   12  A    between atoms: _20  and  _23
REMARK   13  A    between atoms: _23  and  _24
REMARK   14  A    between atoms: _26  and  _28
REMARK   15  A    between atoms: _28  and  _29
REMARK   16  A    between atoms: _28  and  _31
REMARK   17  A    between atoms: _31  and  _32
REMARK   18  A    between atoms: _34  and  _36
REMARK   19  A    between atoms: _36  and  _37
REMARK   20  A    between atoms: _36  and  _39
REMARK   21  A    between atoms: _39  and  _40
REMARK   22  A    between atoms: _45  and  _47
REMARK   23  A    between atoms: _47  and  _48
REMARK   24  A    between atoms: _47  and  _50
REMARK   25  A    between atoms: _50  and  _51
REMARK   26  A    between atoms: _51  and  _52
REMARK   27  A    between atoms: _57  and  _59
REMARK   28  A    between atoms: _59  and  _60
REMARK   29  A    between atoms: _59  and  _62
REMARK   30  A    between atoms: _62  and  _63
REMARK   31  A    between atoms: _63  and  _64
REMARK   32  A    between atoms: _69  and  _71
REMARK   33  A    between atoms: _71  and  _72
REMARK   34  A    between atoms: _71  and  _74
REMARK   35  A    between atoms: _74  and  _75
REMARK   36  A    between atoms: _77  and  _79
REMARK   37  A    between atoms: _79  and  _80
REMARK   38  A    between atoms: _79  and  _82
REMARK   39  A    between atoms: _82  and  _83
REMARK   40  A    between atoms: _86  and  _88
REMARK   41  A    between atoms: _88  and  _89
REMARK   42  A    between atoms: _88  and  _91
REMARK   43  A    between atoms: _91  and  _92
REMARK   44  A    between atoms: _97  and  _99
REMARK   45  A    between atoms: _99  and  _100
REMARK   46  A    between atoms: _99  and  _102
REMARK   47  A    between atoms: _105  and  _107
REMARK   48  A    between atoms: _107  and  _108
REMARK   49  A    between atoms: _107  and  _110
REMARK   50  A    between atoms: _110  and  _111
REMARK   51  A    between atoms: _111  and  _112
REMARK   52  A    between atoms: _112  and  _113
REMARK   53  A    between atoms: _122  and  _124
REMARK   54  A    between atoms: _124  and  _125
REMARK   55  A    between atoms: _124  and  _127
REMARK   56  A    between atoms: _127  and  _128
REMARK   57  A    between atoms: _130  and  _132
REMARK   58  A    between atoms: _132  and  _133
REMARK   59  A    between atoms: _132  and  _135
REMARK   60  A    between atoms: _135  and  _136
REMARK   61  A    between atoms: _136  and  _137
REMARK   62  A    between atoms: _140  and  _142
REMARK   63  A    between atoms: _142  and  _143
REMARK   64  A    between atoms: _142  and  _145
REMARK   65  A    between atoms: _145  and  _146
REMARK   66  A    between atoms: _149  and  _151
REMARK   67  A    between atoms: _151  and  _152
REMARK   68  A    between atoms: _154  and  _156
REMARK   69  A    between atoms: _156  and  _157
REMARK   70  A    between atoms: _156  and  _159
REMARK   71  A    between atoms: _159  and  _160
REMARK   72  A    between atoms: _163  and  _165
REMARK   73  A    between atoms: _174  and  _177
REMARK   74  A    between atoms: _177  and  _178
REMARK   75  A    between atoms: _185  and  _186
REMARK   76  A    between atoms: _192  and  _194
REMARK   77  A    between atoms: _194  and  _195
REMARK   78  A    between atoms: _194  and  _197
REMARK   79  A    between atoms: _197  and  _198
REMARK   80  A    between atoms: _203  and  _204
REMARK   81  A    between atoms: _206  and  _208
REMARK   82  A    between atoms: _208  and  _209
REMARK   83  A    between atoms: _208  and  _211
REMARK   84  A    between atoms: _211  and  _212
REMARK   85  A    between atoms: _212  and  _213
REMARK   86  A    between atoms: _212  and  _214
REMARK   87  A    between atoms: _213  and  CA_248
REMARK   88  A    between atoms: _217  and  _219
REMARK   89  A    between atoms: _219  and  _220
REMARK   90  A    between atoms: _219  and  _222
REMARK   91  A    between atoms: _222  and  _223
REMARK   92  A    between atoms: _226  and  _228
REMARK   93  A    between atoms: _228  and  _229
REMARK   94  A    between atoms: _232  and  _234
REMARK   95  A    between atoms: _234  and  _235
REMARK   96  A    between atoms: _234  and  _237
REMARK   97  A    between atoms: _237  and  _238
REMARK   98  A    between atoms: _241  and  _243
REMARK   99  A    between atoms: _243  and  _244
REMARK                            x       y       z     vdW  Elec       q    Type
REMARK                         _______ _______ _______ _____ _____    ______ ____
ROOT
ATOM      1  O   HOH     1     -40.821  21.919   6.681  0.00  0.00    +0.000 OA
ENDROOT
TORSDOF 0
REMARK  Name = ../refined-set-2016/2jdu/2jdu_pocket.pdb
REMARK  99 active torsions:
REMARK  status: ('A' for Active; 'I' for Inactive)
REMARK    1  A    between atoms: _1  and  _3
REMARK    2  A    between atoms: _3  and  _4
REMARK    3  A    between atoms: _7  and  _9
REMARK    4  A    between atoms: _9  and  _10
REMARK    5  A    between atoms: _9  and  _12
REMARK    6  A    between atoms: _10  and  _11
REMARK    7  A    between atoms: _10  and  _18
REMARK    8  A    between atoms: _11  and  CA_248
REMARK    9  A    between atoms: _12  and  _13
REMARK   10  A    between atoms: _18  and  _20
REMARK   11  A    between atoms: _20  and  _21
REMARK   12  A    between atoms: _20  and  _23
REMARK   13  A    between atoms: _23  and  _24
REMARK   14  A    between atoms: _26  and  _28
REMARK   15  A    between atoms: _28  and  _29
REMARK   16  A    between atoms: _28  and  _31
REMARK   17  A    between atoms: _31  and  _32
REMARK   18  A    between atoms: _34  and  _36
REMARK   19  A    between atoms: _36  and  _37
REMARK   20  A    between atoms: _36  and  _39
REMARK   21  A    between atoms: _39  and  _40
REMARK   22  A    between atoms: _45  and  _47
REMARK   23  A    between atoms: _47  and  _48
REMARK   24  A    between atoms: _47  and  _50
REMARK   25  A    between atoms: _50  and  _51
REMARK   26  A    between atoms: _51  and  _52
REMARK   27  A    between atoms: _57  and  _59
REMARK   28  A    between atoms: _59  and  _60
REMARK   29  A    between atoms: _59  and  _62
REMARK   30  A    between atoms: _62  and  _63
REMARK   31  A    between atoms: _63  and  _64
REMARK   32  A    between atoms: _69  and  _71
REMARK   33  A    between atoms: _71  and  _72
REMARK   34  A    between atoms: _71  and  _74
REMARK   35  A    between atoms: _74  and  _75
REMARK   36  A    between atoms: _77  and  _79
REMARK   37  A    between atoms: _79  and  _80
REMARK   38  A    between atoms: _79  and  _82
REMARK   39  A    between atoms: _82  and  _83
REMARK   40  A    between atoms: _86  and  _88
REMARK   41  A    between atoms: _88  and  _89
REMARK   42  A    between atoms: _88  and  _91
REMARK   43  A    between atoms: _91  and  _92
REMARK   44  A    between atoms: _97  and  _99
REMARK   45  A    between atoms: _99  and  _100
REMARK   46  A    between atoms: _99  and  _102
REMARK   47  A    between atoms: _105  and  _107
REMARK   48  A    between atoms: _107  and  _108
REMARK   49  A    between atoms: _107  and  _110
REMARK   50  A    between atoms: _110  and  _111
REMARK   51  A    between atoms: _111  and  _112
REMARK   52  A    between atoms: _112  and  _113
REMARK   53  A    between atoms: _122  and  _124
REMARK   54  A    between atoms: _124  and  _125
REMARK   55  A    between atoms: _124  and  _127
REMARK   56  A    between atoms: _127  and  _128
REMARK   57  A    between atoms: _130  and  _132
REMARK   58  A    between atoms: _132  and  _133
REMARK   59  A    between atoms: _132  and  _135
REMARK   60  A    between atoms: _135  and  _136
REMARK   61  A    between atoms: _136  and  _137
REMARK   62  A    between atoms: _140  and  _142
REMARK   63  A    between atoms: _142  and  _143
REMARK   64  A    between atoms: _142  and  _145
REMARK   65  A    between atoms: _145  and  _146
REMARK   66  A    between atoms: _149  and  _151
REMARK   67  A    between atoms: _151  and  _152
REMARK   68  A    between atoms: _154  and  _156
REMARK   69  A    between atoms: _156  and  _157
REMARK   70  A    between atoms: _156  and  _159
REMARK   71  A    between atoms: _159  and  _160
REMARK   72  A    between atoms: _163  and  _165
REMARK   73  A    between atoms: _174  and  _177
REMARK   74  A    between atoms: _177  and  _178
REMARK   75  A    between atoms: _185  and  _186
REMARK   76  A    between atoms: _192  and  _194
REMARK   77  A    between atoms: _194  and  _195
REMARK   78  A    between atoms: _194  and  _197
REMARK   79  A    between atoms: _197  and  _198
REMARK   80  A    between atoms: _203  and  _204
REMARK   81  A    between atoms: _206  and  _208
REMARK   82  A    between atoms: _208  and  _209
REMARK   83  A    between atoms: _208  and  _211
REMARK   84  A    between atoms: _211  and  _212
REMARK   85  A    between atoms: _212  and  _213
REMARK   86  A    between atoms: _212  and  _214
REMARK   87  A    between atoms: _213  and  CA_248
REMARK   88  A    between atoms: _217  and  _219
REMARK   89  A    between atoms: _219  and  _220
REMARK   90  A    between atoms: _219  and  _222
REMARK   91  A    between atoms: _222  and  _223
REMARK   92  A    between atoms: _226  and  _228
REMARK   93  A    between atoms: _228  and  _229
REMARK   94  A    between atoms: _232  and  _234
REMARK   95  A    between atoms: _234  and  _235
REMARK   96  A    between atoms: _234  and  _237
REMARK   97  A    between atoms: _237  and  _238
REMARK   98  A    between atoms: _241  and  _243
REMARK   99  A    between atoms: _243  and  _244
REMARK                            x       y       z     vdW  Elec       q    Type
REMARK                         _______ _______ _______ _____ _____    ______ ____
ROOT
ATOM      1  O   HOH     1     -45.157  21.469   9.605  0.00  0.00    +0.000 OA
ENDROOT
TORSDOF 0
REMARK  Name = ../refined-set-2016/2jdu/2jdu_pocket.pdb
REMARK  99 active torsions:
REMARK  status: ('A' for Active; 'I' for Inactive)
REMARK    1  A    between atoms: _1  and  _3
REMARK    2  A    between atoms: _3  and  _4
REMARK    3  A    between atoms: _7  and  _9
REMARK    4  A    between atoms: _9  and  _10
REMARK    5  A    between atoms: _9  and  _12
REMARK    6  A    between atoms: _10  and  _11
REMARK    7  A    between atoms: _10  and  _18
REMARK    8  A    between atoms: _11  and  CA_248
REMARK    9  A    between atoms: _12  and  _13
REMARK   10  A    between atoms: _18  and  _20
REMARK   11  A    between atoms: _20  and  _21
REMARK   12  A    between atoms: _20  and  _23
REMARK   13  A    between atoms: _23  and  _24
REMARK   14  A    between atoms: _26  and  _28
REMARK   15  A    between atoms: _28  and  _29
REMARK   16  A    between atoms: _28  and  _31
REMARK   17  A    between atoms: _31  and  _32
REMARK   18  A    between atoms: _34  and  _36
REMARK   19  A    between atoms: _36  and  _37
REMARK   20  A    between atoms: _36  and  _39
REMARK   21  A    between atoms: _39  and  _40
REMARK   22  A    between atoms: _45  and  _47
REMARK   23  A    between atoms: _47  and  _48
REMARK   24  A    between atoms: _47  and  _50
REMARK   25  A    between atoms: _50  and  _51
REMARK   26  A    between atoms: _51  and  _52
REMARK   27  A    between atoms: _57  and  _59
REMARK   28  A    between atoms: _59  and  _60
REMARK   29  A    between atoms: _59  and  _62
REMARK   30  A    between atoms: _62  and  _63
REMARK   31  A    between atoms: _63  and  _64
REMARK   32  A    between atoms: _69  and  _71
REMARK   33  A    between atoms: _71  and  _72
REMARK   34  A    between atoms: _71  and  _74
REMARK   35  A    between atoms: _74  and  _75
REMARK   36  A    between atoms: _77  and  _79
REMARK   37  A    between atoms: _79  and  _80
REMARK   38  A    between atoms: _79  and  _82
REMARK   39  A    between atoms: _82  and  _83
REMARK   40  A    between atoms: _86  and  _88
REMARK   41  A    between atoms: _88  and  _89
REMARK   42  A    between atoms: _88  and  _91
REMARK   43  A    between atoms: _91  and  _92
REMARK   44  A    between atoms: _97  and  _99
REMARK   45  A    between atoms: _99  and  _100
REMARK   46  A    between atoms: _99  and  _102
REMARK   47  A    between atoms: _105  and  _107
REMARK   48  A    between atoms: _107  and  _108
REMARK   49  A    between atoms: _107  and  _110
REMARK   50  A    between atoms: _110  and  _111
REMARK   51  A    between atoms: _111  and  _112
REMARK   52  A    between atoms: _112  and  _113
REMARK   53  A    between atoms: _122  and  _124
REMARK   54  A    between atoms: _124  and  _125
REMARK   55  A    between atoms: _124  and  _127
REMARK   56  A    between atoms: _127  and  _128
REMARK   57  A    between atoms: _130  and  _132
REMARK   58  A    between atoms: _132  and  _133
REMARK   59  A    between atoms: _132  and  _135
REMARK   60  A    between atoms: _135  and  _136
REMARK   61  A    between atoms: _136  and  _137
REMARK   62  A    between atoms: _140  and  _142
REMARK   63  A    between atoms: _142  and  _143
REMARK   64  A    between atoms: _142  and  _145
REMARK   65  A    between atoms: _145  and  _146
REMARK   66  A    between atoms: _149  and  _151
REMARK   67  A    between atoms: _151  and  _152
REMARK   68  A    between atoms: _154  and  _156
REMARK   69  A    between atoms: _156  and  _157
REMARK   70  A    between atoms: _156  and  _159
REMARK   71  A    between atoms: _159  and  _160
REMARK   72  A    between atoms: _163  and  _165
REMARK   73  A    between atoms: _174  and  _177
REMARK   74  A    between atoms: _177  and  _178
REMARK   75  A    between atoms: _185  and  _186
REMARK   76  A    between atoms: _192  and  _194
REMARK   77  A    between atoms: _194  and  _195
REMARK   78  A    between atoms: _194  and  _197
REMARK   79  A    between atoms: _197  and  _198
REMARK   80  A    between atoms: _203  and  _204
REMARK   81  A    between atoms: _206  and  _208
REMARK   82  A    between atoms: _208  and  _209
REMARK   83  A    between atoms: _208  and  _211
REMARK   84  A    between atoms: _211  and  _212
REMARK   85  A    between atoms: _212  and  _213
REMARK   86  A    between atoms: _212  and  _214
REMARK   87  A    between atoms: _213  and  CA_248
REMARK   88  A    between atoms: _217  and  _219
REMARK   89  A    between atoms: _219  and  _220
REMARK   90  A    between atoms: _219  and  _222
REMARK   91  A    between atoms: _222  and  _223
REMARK   92  A    between atoms: _226  and  _228
REMARK   93  A    between atoms: _228  and  _229
REMARK   94  A    between atoms: _232  and  _234
REMARK   95  A    between atoms: _234  and  _235
REMARK   96  A    between atoms: _234  and  _237
REMARK   97  A    between atoms: _237  and  _238
REMARK   98  A    between atoms: _241  and  _243
REMARK   99  A    between atoms: _243  and  _244
REMARK                            x       y       z     vdW  Elec       q    Type
REMARK                         _______ _______ _______ _____ _____    ______ ____
ROOT
ATOM      1  O   HOH     1     -37.141  14.620   6.067  0.00  0.00    +0.000 OA
ENDROOT
TORSDOF 0
REMARK  Name = ../refined-set-2016/2jdu/2jdu_pocket.pdb
REMARK  99 active torsions:
REMARK  status: ('A' for Active; 'I' for Inactive)
REMARK    1  A    between atoms: _1  and  _3
REMARK    2  A    between atoms: _3  and  _4
REMARK    3  A    between atoms: _7  and  _9
REMARK    4  A    between atoms: _9  and  _10
REMARK    5  A    between atoms: _9  and  _12
REMARK    6  A    between atoms: _10  and  _11
REMARK    7  A    between atoms: _10  and  _18
REMARK    8  A    between atoms: _11  and  CA_248
REMARK    9  A    between atoms: _12  and  _13
REMARK   10  A    between atoms: _18  and  _20
REMARK   11  A    between atoms: _20  and  _21
REMARK   12  A    between atoms: _20  and  _23
REMARK   13  A    between atoms: _23  and  _24
REMARK   14  A    between atoms: _26  and  _28
REMARK   15  A    between atoms: _28  and  _29
REMARK   16  A    between atoms: _28  and  _31
REMARK   17  A    between atoms: _31  and  _32
REMARK   18  A    between atoms: _34  and  _36
REMARK   19  A    between atoms: _36  and  _37
REMARK   20  A    between atoms: _36  and  _39
REMARK   21  A    between atoms: _39  and  _40
REMARK   22  A    between atoms: _45  and  _47
REMARK   23  A    between atoms: _47  and  _48
REMARK   24  A    between atoms: _47  and  _50
REMARK   25  A    between atoms: _50  and  _51
REMARK   26  A    between atoms: _51  and  _52
REMARK   27  A    between atoms: _57  and  _59
REMARK   28  A    between atoms: _59  and  _60
REMARK   29  A    between atoms: _59  and  _62
REMARK   30  A    between atoms: _62  and  _63
REMARK   31  A    between atoms: _63  and  _64
REMARK   32  A    between atoms: _69  and  _71
REMARK   33  A    between atoms: _71  and  _72
REMARK   34  A    between atoms: _71  and  _74
REMARK   35  A    between atoms: _74  and  _75
REMARK   36  A    between atoms: _77  and  _79
REMARK   37  A    between atoms: _79  and  _80
REMARK   38  A    between atoms: _79  and  _82
REMARK   39  A    between atoms: _82  and  _83
REMARK   40  A    between atoms: _86  and  _88
REMARK   41  A    between atoms: _88  and  _89
REMARK   42  A    between atoms: _88  and  _91
REMARK   43  A    between atoms: _91  and  _92
REMARK   44  A    between atoms: _97  and  _99
REMARK   45  A    between atoms: _99  and  _100
REMARK   46  A    between atoms: _99  and  _102
REMARK   47  A    between atoms: _105  and  _107
REMARK   48  A    between atoms: _107  and  _108
REMARK   49  A    between atoms: _107  and  _110
REMARK   50  A    between atoms: _110  and  _111
REMARK   51  A    between atoms: _111  and  _112
REMARK   52  A    between atoms: _112  and  _113
REMARK   53  A    between atoms: _122  and  _124
REMARK   54  A    between atoms: _124  and  _125
REMARK   55  A    between atoms: _124  and  _127
REMARK   56  A    between atoms: _127  and  _128
REMARK   57  A    between atoms: _130  and  _132
REMARK   58  A    between atoms: _132  and  _133
REMARK   59  A    between atoms: _132  and  _135
REMARK   60  A    between atoms: _135  and  _136
REMARK   61  A    between atoms: _136  and  _137
REMARK   62  A    between atoms: _140  and  _142
REMARK   63  A    between atoms: _142  and  _143
REMARK   64  A    between atoms: _142  and  _145
REMARK   65  A    between atoms: _145  and  _146
REMARK   66  A    between atoms: _149  and  _151
REMARK   67  A    between atoms: _151  and  _152
REMARK   68  A    between atoms: _154  and  _156
REMARK   69  A    between atoms: _156  and  _157
REMARK   70  A    between atoms: _156  and  _159
REMARK   71  A    between atoms: _159  and  _160
REMARK   72  A    between atoms: _163  and  _165
REMARK   73  A    between atoms: _174  and  _177
REMARK   74  A    between atoms: _177  and  _178
REMARK   75  A    between atoms: _185  and  _186
REMARK   76  A    between atoms: _192  and  _194
REMARK   77  A    between atoms: _194  and  _195
REMARK   78  A    between atoms: _194  and  _197
REMARK   79  A    between atoms: _197  and  _198
REMARK   80  A    between atoms: _203  and  _204
REMARK   81  A    between atoms: _206  and  _208
REMARK   82  A    between atoms: _208  and  _209
REMARK   83  A    between atoms: _208  and  _211
REMARK   84  A    between atoms: _211  and  _212
REMARK   85  A    between atoms: _212  and  _213
REMARK   86  A    between atoms: _212  and  _214
REMARK   87  A    between atoms: _213  and  CA_248
REMARK   88  A    between atoms: _217  and  _219
REMARK   89  A    between atoms: _219  and  _220
REMARK   90  A    between atoms: _219  and  _222
REMARK   91  A    between atoms: _222  and  _223
REMARK   92  A    between atoms: _226  and  _228
REMARK   93  A    between atoms: _228  and  _229
REMARK   94  A    between atoms: _232  and  _234
REMARK   95  A    between atoms: _234  and  _235
REMARK   96  A    between atoms: _234  and  _237
REMARK   97  A    between atoms: _237  and  _238
REMARK   98  A    between atoms: _241  and  _243
REMARK   99  A    between atoms: _243  and  _244
REMARK                            x       y       z     vdW  Elec       q    Type
REMARK                         _______ _______ _______ _____ _____    ______ ____
ROOT
ATOM      1  O   HOH     1     -38.291  24.722  12.549  0.00  0.00    +0.000 OA
ENDROOT
TORSDOF 0
REMARK  Name = ../refined-set-2016/2jdu/2jdu_pocket.pdb
REMARK  99 active torsions:
REMARK  status: ('A' for Active; 'I' for Inactive)
REMARK    1  A    between atoms: _1  and  _3
REMARK    2  A    between atoms: _3  and  _4
REMARK    3  A    between atoms: _7  and  _9
REMARK    4  A    between atoms: _9  and  _10
REMARK    5  A    between atoms: _9  and  _12
REMARK    6  A    between atoms: _10  and  _11
REMARK    7  A    between atoms: _10  and  _18
REMARK    8  A    between atoms: _11  and  CA_248
REMARK    9  A    between atoms: _12  and  _13
REMARK   10  A    between atoms: _18  and  _20
REMARK   11  A    between atoms: _20  and  _21
REMARK   12  A    between atoms: _20  and  _23
REMARK   13  A    between atoms: _23  and  _24
REMARK   14  A    between atoms: _26  and  _28
REMARK   15  A    between atoms: _28  and  _29
REMARK   16  A    between atoms: _28  and  _31
REMARK   17  A    between atoms: _31  and  _32
REMARK   18  A    between atoms: _34  and  _36
REMARK   19  A    between atoms: _36  and  _37
REMARK   20  A    between atoms: _36  and  _39
REMARK   21  A    between atoms: _39  and  _40
REMARK   22  A    between atoms: _45  and  _47
REMARK   23  A    between atoms: _47  and  _48
REMARK   24  A    between atoms: _47  and  _50
REMARK   25  A    between atoms: _50  and  _51
REMARK   26  A    between atoms: _51  and  _52
REMARK   27  A    between atoms: _57  and  _59
REMARK   28  A    between atoms: _59  and  _60
REMARK   29  A    between atoms: _59  and  _62
REMARK   30  A    between atoms: _62  and  _63
REMARK   31  A    between atoms: _63  and  _64
REMARK   32  A    between atoms: _69  and  _71
REMARK   33  A    between atoms: _71  and  _72
REMARK   34  A    between atoms: _71  and  _74
REMARK   35  A    between atoms: _74  and  _75
REMARK   36  A    between atoms: _77  and  _79
REMARK   37  A    between atoms: _79  and  _80
REMARK   38  A    between atoms: _79  and  _82
REMARK   39  A    between atoms: _82  and  _83
REMARK   40  A    between atoms: _86  and  _88
REMARK   41  A    between atoms: _88  and  _89
REMARK   42  A    between atoms: _88  and  _91
REMARK   43  A    between atoms: _91  and  _92
REMARK   44  A    between atoms: _97  and  _99
REMARK   45  A    between atoms: _99  and  _100
REMARK   46  A    between atoms: _99  and  _102
REMARK   47  A    between atoms: _105  and  _107
REMARK   48  A    between atoms: _107  and  _108
REMARK   49  A    between atoms: _107  and  _110
REMARK   50  A    between atoms: _110  and  _111
REMARK   51  A    between atoms: _111  and  _112
REMARK   52  A    between atoms: _112  and  _113
REMARK   53  A    between atoms: _122  and  _124
REMARK   54  A    between atoms: _124  and  _125
REMARK   55  A    between atoms: _124  and  _127
REMARK   56  A    between atoms: _127  and  _128
REMARK   57  A    between atoms: _130  and  _132
REMARK   58  A    between atoms: _132  and  _133
REMARK   59  A    between atoms: _132  and  _135
REMARK   60  A    between atoms: _135  and  _136
REMARK   61  A    between atoms: _136  and  _137
REMARK   62  A    between atoms: _140  and  _142
REMARK   63  A    between atoms: _142  and  _143
REMARK   64  A    between atoms: _142  and  _145
REMARK   65  A    between atoms: _145  and  _146
REMARK   66  A    between atoms: _149  and  _151
REMARK   67  A    between atoms: _151  and  _152
REMARK   68  A    between atoms: _154  and  _156
REMARK   69  A    between atoms: _156  and  _157
REMARK   70  A    between atoms: _156  and  _159
REMARK   71  A    between atoms: _159  and  _160
REMARK   72  A    between atoms: _163  and  _165
REMARK   73  A    between atoms: _174  and  _177
REMARK   74  A    between atoms: _177  and  _178
REMARK   75  A    between atoms: _185  and  _186
REMARK   76  A    between atoms: _192  and  _194
REMARK   77  A    between atoms: _194  and  _195
REMARK   78  A    between atoms: _194  and  _197
REMARK   79  A    between atoms: _197  and  _198
REMARK   80  A    between atoms: _203  and  _204
REMARK   81  A    between atoms: _206  and  _208
REMARK   82  A    between atoms: _208  and  _209
REMARK   83  A    between atoms: _208  and  _211
REMARK   84  A    between atoms: _211  and  _212
REMARK   85  A    between atoms: _212  and  _213
REMARK   86  A    between atoms: _212  and  _214
REMARK   87  A    between atoms: _213  and  CA_248
REMARK   88  A    between atoms: _217  and  _219
REMARK   89  A    between atoms: _219  and  _220
REMARK   90  A    between atoms: _219  and  _222
REMARK   91  A    between atoms: _222  and  _223
REMARK   92  A    between atoms: _226  and  _228
REMARK   93  A    between atoms: _228  and  _229
REMARK   94  A    between atoms: _232  and  _234
REMARK   95  A    between atoms: _234  and  _235
REMARK   96  A    between atoms: _234  and  _237
REMARK   97  A    between atoms: _237  and  _238
REMARK   98  A    between atoms: _241  and  _243
REMARK   99  A    between atoms: _243  and  _244
REMARK                            x       y       z     vdW  Elec       q    Type
REMARK                         _______ _______ _______ _____ _____    ______ ____
ROOT
ATOM      1  O   HOH     1     -34.492  20.223   3.055  0.00  0.00    +0.000 OA
ENDROOT
TORSDOF 0
REMARK  Name = ../refined-set-2016/2jdu/2jdu_pocket.pdb
REMARK  99 active torsions:
REMARK  status: ('A' for Active; 'I' for Inactive)
REMARK    1  A    between atoms: _1  and  _3
REMARK    2  A    between atoms: _3  and  _4
REMARK    3  A    between atoms: _7  and  _9
REMARK    4  A    between atoms: _9  and  _10
REMARK    5  A    between atoms: _9  and  _12
REMARK    6  A    between atoms: _10  and  _11
REMARK    7  A    between atoms: _10  and  _18
REMARK    8  A    between atoms: _11  and  CA_248
REMARK    9  A    between atoms: _12  and  _13
REMARK   10  A    between atoms: _18  and  _20
REMARK   11  A    between atoms: _20  and  _21
REMARK   12  A    between atoms: _20  and  _23
REMARK   13  A    between atoms: _23  and  _24
REMARK   14  A    between atoms: _26  and  _28
REMARK   15  A    between atoms: _28  and  _29
REMARK   16  A    between atoms: _28  and  _31
REMARK   17  A    between atoms: _31  and  _32
REMARK   18  A    between atoms: _34  and  _36
REMARK   19  A    between atoms: _36  and  _37
REMARK   20  A    between atoms: _36  and  _39
REMARK   21  A    between atoms: _39  and  _40
REMARK   22  A    between atoms: _45  and  _47
REMARK   23  A    between atoms: _47  and  _48
REMARK   24  A    between atoms: _47  and  _50
REMARK   25  A    between atoms: _50  and  _51
REMARK   26  A    between atoms: _51  and  _52
REMARK   27  A    between atoms: _57  and  _59
REMARK   28  A    between atoms: _59  and  _60
REMARK   29  A    between atoms: _59  and  _62
REMARK   30  A    between atoms: _62  and  _63
REMARK   31  A    between atoms: _63  and  _64
REMARK   32  A    between atoms: _69  and  _71
REMARK   33  A    between atoms: _71  and  _72
REMARK   34  A    between atoms: _71  and  _74
REMARK   35  A    between atoms: _74  and  _75
REMARK   36  A    between atoms: _77  and  _79
REMARK   37  A    between atoms: _79  and  _80
REMARK   38  A    between atoms: _79  and  _82
REMARK   39  A    between atoms: _82  and  _83
REMARK   40  A    between atoms: _86  and  _88
REMARK   41  A    between atoms: _88  and  _89
REMARK   42  A    between atoms: _88  and  _91
REMARK   43  A    between atoms: _91  and  _92
REMARK   44  A    between atoms: _97  and  _99
REMARK   45  A    between atoms: _99  and  _100
REMARK   46  A    between atoms: _99  and  _102
REMARK   47  A    between atoms: _105  and  _107
REMARK   48  A    between atoms: _107  and  _108
REMARK   49  A    between atoms: _107  and  _110
REMARK   50  A    between atoms: _110  and  _111
REMARK   51  A    between atoms: _111  and  _112
REMARK   52  A    between atoms: _112  and  _113
REMARK   53  A    between atoms: _122  and  _124
REMARK   54  A    between atoms: _124  and  _125
REMARK   55  A    between atoms: _124  and  _127
REMARK   56  A    between atoms: _127  and  _128
REMARK   57  A    between atoms: _130  and  _132
REMARK   58  A    between atoms: _132  and  _133
REMARK   59  A    between atoms: _132  and  _135
REMARK   60  A    between atoms: _135  and  _136
REMARK   61  A    between atoms: _136  and  _137
REMARK   62  A    between atoms: _140  and  _142
REMARK   63  A    between atoms: _142  and  _143
REMARK   64  A    between atoms: _142  and  _145
REMARK   65  A    between atoms: _145  and  _146
REMARK   66  A    between atoms: _149  and  _151
REMARK   67  A    between atoms: _151  and  _152
REMARK   68  A    between atoms: _154  and  _156
REMARK   69  A    between atoms: _156  and  _157
REMARK   70  A    between atoms: _156  and  _159
REMARK   71  A    between atoms: _159  and  _160
REMARK   72  A    between atoms: _163  and  _165
REMARK   73  A    between atoms: _174  and  _177
REMARK   74  A    between atoms: _177  and  _178
REMARK   75  A    between atoms: _185  and  _186
REMARK   76  A    between atoms: _192  and  _194
REMARK   77  A    between atoms: _194  and  _195
REMARK   78  A    between atoms: _194  and  _197
REMARK   79  A    between atoms: _197  and  _198
REMARK   80  A    between atoms: _203  and  _204
REMARK   81  A    between atoms: _206  and  _208
REMARK   82  A    between atoms: _208  and  _209
REMARK   83  A    between atoms: _208  and  _211
REMARK   84  A    between atoms: _211  and  _212
REMARK   85  A    between atoms: _212  and  _213
REMARK   86  A    between atoms: _212  and  _214
REMARK   87  A    between atoms: _213  and  CA_248
REMARK   88  A    between atoms: _217  and  _219
REMARK   89  A    between atoms: _219  and  _220
REMARK   90  A    between atoms: _219  and  _222
REMARK   91  A    between atoms: _222  and  _223
REMARK   92  A    between atoms: _226  and  _228
REMARK   93  A    between atoms: _228  and  _229
REMARK   94  A    between atoms: _232  and  _234
REMARK   95  A    between atoms: _234  and  _235
REMARK   96  A    between atoms: _234  and  _237
REMARK   97  A    between atoms: _237  and  _238
REMARK   98  A    between atoms: _241  and  _243
REMARK   99  A    between atoms: _243  and  _244
REMARK                            x       y       z     vdW  Elec       q    Type
REMARK                         _______ _______ _______ _____ _____    ______ ____
ROOT
ATOM      1  O   HOH     1     -37.517  23.274  10.374  0.00  0.00    +0.000 OA
ENDROOT
TORSDOF 0
REMARK  Name = ../refined-set-2016/2jdu/2jdu_pocket.pdb
REMARK  99 active torsions:
REMARK  status: ('A' for Active; 'I' for Inactive)
REMARK    1  A    between atoms: _1  and  _3
REMARK    2  A    between atoms: _3  and  _4
REMARK    3  A    between atoms: _7  and  _9
REMARK    4  A    between atoms: _9  and  _10
REMARK    5  A    between atoms: _9  and  _12
REMARK    6  A    between atoms: _10  and  _11
REMARK    7  A    between atoms: _10  and  _18
REMARK    8  A    between atoms: _11  and  CA_248
REMARK    9  A    between atoms: _12  and  _13
REMARK   10  A    between atoms: _18  and  _20
REMARK   11  A    between atoms: _20  and  _21
REMARK   12  A    between atoms: _20  and  _23
REMARK   13  A    between atoms: _23  and  _24
REMARK   14  A    between atoms: _26  and  _28
REMARK   15  A    between atoms: _28  and  _29
REMARK   16  A    between atoms: _28  and  _31
REMARK   17  A    between atoms: _31  and  _32
REMARK   18  A    between atoms: _34  and  _36
REMARK   19  A    between atoms: _36  and  _37
REMARK   20  A    between atoms: _36  and  _39
REMARK   21  A    between atoms: _39  and  _40
REMARK   22  A    between atoms: _45  and  _47
REMARK   23  A    between atoms: _47  and  _48
REMARK   24  A    between atoms: _47  and  _50
REMARK   25  A    between atoms: _50  and  _51
REMARK   26  A    between atoms: _51  and  _52
REMARK   27  A    between atoms: _57  and  _59
REMARK   28  A    between atoms: _59  and  _60
REMARK   29  A    between atoms: _59  and  _62
REMARK   30  A    between atoms: _62  and  _63
REMARK   31  A    between atoms: _63  and  _64
REMARK   32  A    between atoms: _69  and  _71
REMARK   33  A    between atoms: _71  and  _72
REMARK   34  A    between atoms: _71  and  _74
REMARK   35  A    between atoms: _74  and  _75
REMARK   36  A    between atoms: _77  and  _79
REMARK   37  A    between atoms: _79  and  _80
REMARK   38  A    between atoms: _79  and  _82
REMARK   39  A    between atoms: _82  and  _83
REMARK   40  A    between atoms: _86  and  _88
REMARK   41  A    between atoms: _88  and  _89
REMARK   42  A    between atoms: _88  and  _91
REMARK   43  A    between atoms: _91  and  _92
REMARK   44  A    between atoms: _97  and  _99
REMARK   45  A    between atoms: _99  and  _100
REMARK   46  A    between atoms: _99  and  _102
REMARK   47  A    between atoms: _105  and  _107
REMARK   48  A    between atoms: _107  and  _108
REMARK   49  A    between atoms: _107  and  _110
REMARK   50  A    between atoms: _110  and  _111
REMARK   51  A    between atoms: _111  and  _112
REMARK   52  A    between atoms: _112  and  _113
REMARK   53  A    between atoms: _122  and  _124
REMARK   54  A    between atoms: _124  and  _125
REMARK   55  A    between atoms: _124  and  _127
REMARK   56  A    between atoms: _127  and  _128
REMARK   57  A    between atoms: _130  and  _132
REMARK   58  A    between atoms: _132  and  _133
REMARK   59  A    between atoms: _132  and  _135
REMARK   60  A    between atoms: _135  and  _136
REMARK   61  A    between atoms: _136  and  _137
REMARK   62  A    between atoms: _140  and  _142
REMARK   63  A    between atoms: _142  and  _143
REMARK   64  A    between atoms: _142  and  _145
REMARK   65  A    between atoms: _145  and  _146
REMARK   66  A    between atoms: _149  and  _151
REMARK   67  A    between atoms: _151  and  _152
REMARK   68  A    between atoms: _154  and  _156
REMARK   69  A    between atoms: _156  and  _157
REMARK   70  A    between atoms: _156  and  _159
REMARK   71  A    between atoms: _159  and  _160
REMARK   72  A    between atoms: _163  and  _165
REMARK   73  A    between atoms: _174  and  _177
REMARK   74  A    between atoms: _177  and  _178
REMARK   75  A    between atoms: _185  and  _186
REMARK   76  A    between atoms: _192  and  _194
REMARK   77  A    between atoms: _194  and  _195
REMARK   78  A    between atoms: _194  and  _197
REMARK   79  A    between atoms: _197  and  _198
REMARK   80  A    between atoms: _203  and  _204
REMARK   81  A    between atoms: _206  and  _208
REMARK   82  A    between atoms: _208  and  _209
REMARK   83  A    between atoms: _208  and  _211
REMARK   84  A    between atoms: _211  and  _212
REMARK   85  A    between atoms: _212  and  _213
REMARK   86  A    between atoms: _212  and  _214
REMARK   87  A    between atoms: _213  and  CA_248
REMARK   88  A    between atoms: _217  and  _219
REMARK   89  A    between atoms: _219  and  _220
REMARK   90  A    between atoms: _219  and  _222
REMARK   91  A    between atoms: _222  and  _223
REMARK   92  A    between atoms: _226  and  _228
REMARK   93  A    between atoms: _228  and  _229
REMARK   94  A    between atoms: _232  and  _234
REMARK   95  A    between atoms: _234  and  _235
REMARK   96  A    between atoms: _234  and  _237
REMARK   97  A    between atoms: _237  and  _238
REMARK   98  A    between atoms: _241  and  _243
REMARK   99  A    between atoms: _243  and  _244
REMARK                            x       y       z     vdW  Elec       q    Type
REMARK                         _______ _______ _______ _____ _____    ______ ____
ROOT
ATOM      1  O   HOH     1     -35.545  27.076  11.915  0.00  0.00    +0.000 OA
ENDROOT
TORSDOF 0
REMARK  Name = ../refined-set-2016/2jdu/2jdu_pocket.pdb
REMARK  99 active torsions:
REMARK  status: ('A' for Active; 'I' for Inactive)
REMARK    1  A    between atoms: _1  and  _3
REMARK    2  A    between atoms: _3  and  _4
REMARK    3  A    between atoms: _7  and  _9
REMARK    4  A    between atoms: _9  and  _10
REMARK    5  A    between atoms: _9  and  _12
REMARK    6  A    between atoms: _10  and  _11
REMARK    7  A    between atoms: _10  and  _18
REMARK    8  A    between atoms: _11  and  CA_248
REMARK    9  A    between atoms: _12  and  _13
REMARK   10  A    between atoms: _18  and  _20
REMARK   11  A    between atoms: _20  and  _21
REMARK   12  A    between atoms: _20  and  _23
REMARK   13  A    between atoms: _23  and  _24
REMARK   14  A    between atoms: _26  and  _28
REMARK   15  A    between atoms: _28  and  _29
REMARK   16  A    between atoms: _28  and  _31
REMARK   17  A    between atoms: _31  and  _32
REMARK   18  A    between atoms: _34  and  _36
REMARK   19  A    between atoms: _36  and  _37
REMARK   20  A    between atoms: _36  and  _39
REMARK   21  A    between atoms: _39  and  _40
REMARK   22  A    between atoms: _45  and  _47
REMARK   23  A    between atoms: _47  and  _48
REMARK   24  A    between atoms: _47  and  _50
REMARK   25  A    between atoms: _50  and  _51
REMARK   26  A    between atoms: _51  and  _52
REMARK   27  A    between atoms: _57  and  _59
REMARK   28  A    between atoms: _59  and  _60
REMARK   29  A    between atoms: _59  and  _62
REMARK   30  A    between atoms: _62  and  _63
REMARK   31  A    between atoms: _63  and  _64
REMARK   32  A    between atoms: _69  and  _71
REMARK   33  A    between atoms: _71  and  _72
REMARK   34  A    between atoms: _71  and  _74
REMARK   35  A    between atoms: _74  and  _75
REMARK   36  A    between atoms: _77  and  _79
REMARK   37  A    between atoms: _79  and  _80
REMARK   38  A    between atoms: _79  and  _82
REMARK   39  A    between atoms: _82  and  _83
REMARK   40  A    between atoms: _86  and  _88
REMARK   41  A    between atoms: _88  and  _89
REMARK   42  A    between atoms: _88  and  _91
REMARK   43  A    between atoms: _91  and  _92
REMARK   44  A    between atoms: _97  and  _99
REMARK   45  A    between atoms: _99  and  _100
REMARK   46  A    between atoms: _99  and  _102
REMARK   47  A    between atoms: _105  and  _107
REMARK   48  A    between atoms: _107  and  _108
REMARK   49  A    between atoms: _107  and  _110
REMARK   50  A    between atoms: _110  and  _111
REMARK   51  A    between atoms: _111  and  _112
REMARK   52  A    between atoms: _112  and  _113
REMARK   53  A    between atoms: _122  and  _124
REMARK   54  A    between atoms: _124  and  _125
REMARK   55  A    between atoms: _124  and  _127
REMARK   56  A    between atoms: _127  and  _128
REMARK   57  A    between atoms: _130  and  _132
REMARK   58  A    between atoms: _132  and  _133
REMARK   59  A    between atoms: _132  and  _135
REMARK   60  A    between atoms: _135  and  _136
REMARK   61  A    between atoms: _136  and  _137
REMARK   62  A    between atoms: _140  and  _142
REMARK   63  A    between atoms: _142  and  _143
REMARK   64  A    between atoms: _142  and  _145
REMARK   65  A    between atoms: _145  and  _146
REMARK   66  A    between atoms: _149  and  _151
REMARK   67  A    between atoms: _151  and  _152
REMARK   68  A    between atoms: _154  and  _156
REMARK   69  A    between atoms: _156  and  _157
REMARK   70  A    between atoms: _156  and  _159
REMARK   71  A    between atoms: _159  and  _160
REMARK   72  A    between atoms: _163  and  _165
REMARK   73  A    between atoms: _174  and  _177
REMARK   74  A    between atoms: _177  and  _178
REMARK   75  A    between atoms: _185  and  _186
REMARK   76  A    between atoms: _192  and  _194
REMARK   77  A    between atoms: _194  and  _195
REMARK   78  A    between atoms: _194  and  _197
REMARK   79  A    between atoms: _197  and  _198
REMARK   80  A    between atoms: _203  and  _204
REMARK   81  A    between atoms: _206  and  _208
REMARK   82  A    between atoms: _208  and  _209
REMARK   83  A    between atoms: _208  and  _211
REMARK   84  A    between atoms: _211  and  _212
REMARK   85  A    between atoms: _212  and  _213
REMARK   86  A    between atoms: _212  and  _214
REMARK   87  A    between atoms: _213  and  CA_248
REMARK   88  A    between atoms: _217  and  _219
REMARK   89  A    between atoms: _219  and  _220
REMARK   90  A    between atoms: _219  and  _222
REMARK   91  A    between atoms: _222  and  _223
REMARK   92  A    between atoms: _226  and  _228
REMARK   93  A    between atoms: _228  and  _229
REMARK   94  A    between atoms: _232  and  _234
REMARK   95  A    between atoms: _234  and  _235
REMARK   96  A    between atoms: _234  and  _237
REMARK   97  A    between atoms: _237  and  _238
REMARK   98  A    between atoms: _241  and  _243
REMARK   99  A    between atoms: _243  and  _244
REMARK                            x       y       z     vdW  Elec       q    Type
REMARK                         _______ _______ _______ _____ _____    ______ ____
ROOT
ATOM      1  O   HOH     1     -32.166  23.802   6.273  0.00  0.00    +0.000 OA
ENDROOT
TORSDOF 0
REMARK  Name = ../refined-set-2016/2jdu/2jdu_pocket.pdb
REMARK  99 active torsions:
REMARK  status: ('A' for Active; 'I' for Inactive)
REMARK    1  A    between atoms: _1  and  _3
REMARK    2  A    between atoms: _3  and  _4
REMARK    3  A    between atoms: _7  and  _9
REMARK    4  A    between atoms: _9  and  _10
REMARK    5  A    between atoms: _9  and  _12
REMARK    6  A    between atoms: _10  and  _11
REMARK    7  A    between atoms: _10  and  _18
REMARK    8  A    between atoms: _11  and  CA_248
REMARK    9  A    between atoms: _12  and  _13
REMARK   10  A    between atoms: _18  and  _20
REMARK   11  A    between atoms: _20  and  _21
REMARK   12  A    between atoms: _20  and  _23
REMARK   13  A    between atoms: _23  and  _24
REMARK   14  A    between atoms: _26  and  _28
REMARK   15  A    between atoms: _28  and  _29
REMARK   16  A    between atoms: _28  and  _31
REMARK   17  A    between atoms: _31  and  _32
REMARK   18  A    between atoms: _34  and  _36
REMARK   19  A    between atoms: _36  and  _37
REMARK   20  A    between atoms: _36  and  _39
REMARK   21  A    between atoms: _39  and  _40
REMARK   22  A    between atoms: _45  and  _47
REMARK   23  A    between atoms: _47  and  _48
REMARK   24  A    between atoms: _47  and  _50
REMARK   25  A    between atoms: _50  and  _51
REMARK   26  A    between atoms: _51  and  _52
REMARK   27  A    between atoms: _57  and  _59
REMARK   28  A    between atoms: _59  and  _60
REMARK   29  A    between atoms: _59  and  _62
REMARK   30  A    between atoms: _62  and  _63
REMARK   31  A    between atoms: _63  and  _64
REMARK   32  A    between atoms: _69  and  _71
REMARK   33  A    between atoms: _71  and  _72
REMARK   34  A    between atoms: _71  and  _74
REMARK   35  A    between atoms: _74  and  _75
REMARK   36  A    between atoms: _77  and  _79
REMARK   37  A    between atoms: _79  and  _80
REMARK   38  A    between atoms: _79  and  _82
REMARK   39  A    between atoms: _82  and  _83
REMARK   40  A    between atoms: _86  and  _88
REMARK   41  A    between atoms: _88  and  _89
REMARK   42  A    between atoms: _88  and  _91
REMARK   43  A    between atoms: _91  and  _92
REMARK   44  A    between atoms: _97  and  _99
REMARK   45  A    between atoms: _99  and  _100
REMARK   46  A    between atoms: _99  and  _102
REMARK   47  A    between atoms: _105  and  _107
REMARK   48  A    between atoms: _107  and  _108
REMARK   49  A    between atoms: _107  and  _110
REMARK   50  A    between atoms: _110  and  _111
REMARK   51  A    between atoms: _111  and  _112
REMARK   52  A    between atoms: _112  and  _113
REMARK   53  A    between atoms: _122  and  _124
REMARK   54  A    between atoms: _124  and  _125
REMARK   55  A    between atoms: _124  and  _127
REMARK   56  A    between atoms: _127  and  _128
REMARK   57  A    between atoms: _130  and  _132
REMARK   58  A    between atoms: _132  and  _133
REMARK   59  A    between atoms: _132  and  _135
REMARK   60  A    between atoms: _135  and  _136
REMARK   61  A    between atoms: _136  and  _137
REMARK   62  A    between atoms: _140  and  _142
REMARK   63  A    between atoms: _142  and  _143
REMARK   64  A    between atoms: _142  and  _145
REMARK   65  A    between atoms: _145  and  _146
REMARK   66  A    between atoms: _149  and  _151
REMARK   67  A    between atoms: _151  and  _152
REMARK   68  A    between atoms: _154  and  _156
REMARK   69  A    between atoms: _156  and  _157
REMARK   70  A    between atoms: _156  and  _159
REMARK   71  A    between atoms: _159  and  _160
REMARK   72  A    between atoms: _163  and  _165
REMARK   73  A    between atoms: _174  and  _177
REMARK   74  A    between atoms: _177  and  _178
REMARK   75  A    between atoms: _185  and  _186
REMARK   76  A    between atoms: _192  and  _194
REMARK   77  A    between atoms: _194  and  _195
REMARK   78  A    between atoms: _194  and  _197
REMARK   79  A    between atoms: _197  and  _198
REMARK   80  A    between atoms: _203  and  _204
REMARK   81  A    between atoms: _206  and  _208
REMARK   82  A    between atoms: _208  and  _209
REMARK   83  A    between atoms: _208  and  _211
REMARK   84  A    between atoms: _211  and  _212
REMARK   85  A    between atoms: _212  and  _213
REMARK   86  A    between atoms: _212  and  _214
REMARK   87  A    between atoms: _213  and  CA_248
REMARK   88  A    between atoms: _217  and  _219
REMARK   89  A    between atoms: _219  and  _220
REMARK   90  A    between atoms: _219  and  _222
REMARK   91  A    between atoms: _222  and  _223
REMARK   92  A    between atoms: _226  and  _228
REMARK   93  A    between atoms: _228  and  _229
REMARK   94  A    between atoms: _232  and  _234
REMARK   95  A    between atoms: _234  and  _235
REMARK   96  A    between atoms: _234  and  _237
REMARK   97  A    between atoms: _237  and  _238
REMARK   98  A    between atoms: _241  and  _243
REMARK   99  A    between atoms: _243  and  _244
REMARK                            x       y       z     vdW  Elec       q    Type
REMARK                         _______ _______ _______ _____ _____    ______ ____
ROOT
ATOM      1  O   HOH     1     -34.652  18.553  17.256  0.00  0.00    +0.000 OA
ENDROOT
TORSDOF 0
REMARK  Name = ../refined-set-2016/2jdu/2jdu_pocket.pdb
REMARK  99 active torsions:
REMARK  status: ('A' for Active; 'I' for Inactive)
REMARK    1  A    between atoms: _1  and  _3
REMARK    2  A    between atoms: _3  and  _4
REMARK    3  A    between atoms: _7  and  _9
REMARK    4  A    between atoms: _9  and  _10
REMARK    5  A    between atoms: _9  and  _12
REMARK    6  A    between atoms: _10  and  _11
REMARK    7  A    between atoms: _10  and  _18
REMARK    8  A    between atoms: _11  and  CA_248
REMARK    9  A    between atoms: _12  and  _13
REMARK   10  A    between atoms: _18  and  _20
REMARK   11  A    between atoms: _20  and  _21
REMARK   12  A    between atoms: _20  and  _23
REMARK   13  A    between atoms: _23  and  _24
REMARK   14  A    between atoms: _26  and  _28
REMARK   15  A    between atoms: _28  and  _29
REMARK   16  A    between atoms: _28  and  _31
REMARK   17  A    between atoms: _31  and  _32
REMARK   18  A    between atoms: _34  and  _36
REMARK   19  A    between atoms: _36  and  _37
REMARK   20  A    between atoms: _36  and  _39
REMARK   21  A    between atoms: _39  and  _40
REMARK   22  A    between atoms: _45  and  _47
REMARK   23  A    between atoms: _47  and  _48
REMARK   24  A    between atoms: _47  and  _50
REMARK   25  A    between atoms: _50  and  _51
REMARK   26  A    between atoms: _51  and  _52
REMARK   27  A    between atoms: _57  and  _59
REMARK   28  A    between atoms: _59  and  _60
REMARK   29  A    between atoms: _59  and  _62
REMARK   30  A    between atoms: _62  and  _63
REMARK   31  A    between atoms: _63  and  _64
REMARK   32  A    between atoms: _69  and  _71
REMARK   33  A    between atoms: _71  and  _72
REMARK   34  A    between atoms: _71  and  _74
REMARK   35  A    between atoms: _74  and  _75
REMARK   36  A    between atoms: _77  and  _79
REMARK   37  A    between atoms: _79  and  _80
REMARK   38  A    between atoms: _79  and  _82
REMARK   39  A    between atoms: _82  and  _83
REMARK   40  A    between atoms: _86  and  _88
REMARK   41  A    between atoms: _88  and  _89
REMARK   42  A    between atoms: _88  and  _91
REMARK   43  A    between atoms: _91  and  _92
REMARK   44  A    between atoms: _97  and  _99
REMARK   45  A    between atoms: _99  and  _100
REMARK   46  A    between atoms: _99  and  _102
REMARK   47  A    between atoms: _105  and  _107
REMARK   48  A    between atoms: _107  and  _108
REMARK   49  A    between atoms: _107  and  _110
REMARK   50  A    between atoms: _110  and  _111
REMARK   51  A    between atoms: _111  and  _112
REMARK   52  A    between atoms: _112  and  _113
REMARK   53  A    between atoms: _122  and  _124
REMARK   54  A    between atoms: _124  and  _125
REMARK   55  A    between atoms: _124  and  _127
REMARK   56  A    between atoms: _127  and  _128
REMARK   57  A    between atoms: _130  and  _132
REMARK   58  A    between atoms: _132  and  _133
REMARK   59  A    between atoms: _132  and  _135
REMARK   60  A    between atoms: _135  and  _136
REMARK   61  A    between atoms: _136  and  _137
REMARK   62  A    between atoms: _140  and  _142
REMARK   63  A    between atoms: _142  and  _143
REMARK   64  A    between atoms: _142  and  _145
REMARK   65  A    between atoms: _145  and  _146
REMARK   66  A    between atoms: _149  and  _151
REMARK   67  A    between atoms: _151  and  _152
REMARK   68  A    between atoms: _154  and  _156
REMARK   69  A    between atoms: _156  and  _157
REMARK   70  A    between atoms: _156  and  _159
REMARK   71  A    between atoms: _159  and  _160
REMARK   72  A    between atoms: _163  and  _165
REMARK   73  A    between atoms: _174  and  _177
REMARK   74  A    between atoms: _177  and  _178
REMARK   75  A    between atoms: _185  and  _186
REMARK   76  A    between atoms: _192  and  _194
REMARK   77  A    between atoms: _194  and  _195
REMARK   78  A    between atoms: _194  and  _197
REMARK   79  A    between atoms: _197  and  _198
REMARK   80  A    between atoms: _203  and  _204
REMARK   81  A    between atoms: _206  and  _208
REMARK   82  A    between atoms: _208  and  _209
REMARK   83  A    between atoms: _208  and  _211
REMARK   84  A    between atoms: _211  and  _212
REMARK   85  A    between atoms: _212  and  _213
REMARK   86  A    between atoms: _212  and  _214
REMARK   87  A    between atoms: _213  and  CA_248
REMARK   88  A    between atoms: _217  and  _219
REMARK   89  A    between atoms: _219  and  _220
REMARK   90  A    between atoms: _219  and  _222
REMARK   91  A    between atoms: _222  and  _223
REMARK   92  A    between atoms: _226  and  _228
REMARK   93  A    between atoms: _228  and  _229
REMARK   94  A    between atoms: _232  and  _234
REMARK   95  A    between atoms: _234  and  _235
REMARK   96  A    between atoms: _234  and  _237
REMARK   97  A    between atoms: _237  and  _238
REMARK   98  A    between atoms: _241  and  _243
REMARK   99  A    between atoms: _243  and  _244
REMARK                            x       y       z     vdW  Elec       q    Type
REMARK                         _______ _______ _______ _____ _____    ______ ____
ROOT
ATOM      1  O   HOH     1     -32.557  19.598  18.576  0.00  0.00    +0.000 OA
ENDROOT
TORSDOF 0
