REMARK  Name = ../refined-set-2016/3ies/3ies_pocket.pdb
REMARK  256 active torsions:
REMARK  status: ('A' for Active; 'I' for Inactive)
REMARK    1  A    between atoms: _1  and  _3
REMARK    2  A    between atoms: _3  and  _4
REMARK    3  A    between atoms: _3  and  _6
REMARK    4  A    between atoms: _6  and  _7
REMARK    5  A    between atoms: _7  and  _8
REMARK    6  A    between atoms: _10  and  _12
REMARK    7  A    between atoms: _12  and  _13
REMARK    8  A    between atoms: _12  and  _15
REMARK    9  A    between atoms: _15  and  _16
REMARK   10  A    between atoms: _21  and  _23
REMARK   11  A    between atoms: _23  and  _24
REMARK   12  A    between atoms: _23  and  _26
REMARK   13  A    between atoms: _26  and  _27
REMARK   14  A    between atoms: _29  and  _31
REMARK   15  A    between atoms: _31  and  _32
REMARK   16  A    between atoms: _31  and  _34
REMARK   17  A    between atoms: _37  and  _39
REMARK   18  A    between atoms: _39  and  _40
REMARK   19  A    between atoms: _39  and  _42
REMARK   20  A    between atoms: _42  and  _43
REMARK   21  A    between atoms: _43  and  _44
REMARK   22  A    between atoms: _44  and  _45
REMARK   23  A    between atoms: _54  and  _56
REMARK   24  A    between atoms: _56  and  _57
REMARK   25  A    between atoms: _56  and  _59
REMARK   26  A    between atoms: _59  and  _60
REMARK   27  A    between atoms: _65  and  _67
REMARK   28  A    between atoms: _67  and  _68
REMARK   29  A    between atoms: _71  and  _73
REMARK   30  A    between atoms: _73  and  _74
REMARK   31  A    between atoms: _73  and  _76
REMARK   32  A    between atoms: _76  and  _77
REMARK   33  A    between atoms: _83  and  _85
REMARK   34  A    between atoms: _85  and  _86
REMARK   35  A    between atoms: _88  and  _90
REMARK   36  A    between atoms: _90  and  _91
REMARK   37  A    between atoms: _90  and  _93
REMARK   38  A    between atoms: _93  and  _94
REMARK   39  A    between atoms: _99  and  _101
REMARK   40  A    between atoms: _101  and  _102
REMARK   41  A    between atoms: _101  and  _104
REMARK   42  A    between atoms: _104  and  _105
REMARK   43  A    between atoms: _110  and  _112
REMARK   44  A    between atoms: _112  and  _113
REMARK   45  A    between atoms: _115  and  _117
REMARK   46  A    between atoms: _117  and  _118
REMARK   47  A    between atoms: _117  and  _120
REMARK   48  A    between atoms: _120  and  _121
REMARK   49  A    between atoms: _127  and  _129
REMARK   50  A    between atoms: _129  and  _130
REMARK   51  A    between atoms: _132  and  _134
REMARK   52  A    between atoms: _134  and  _135
REMARK   53  A    between atoms: _134  and  _137
REMARK   54  A    between atoms: _137  and  _138
REMARK   55  A    between atoms: _138  and  _139
REMARK   56  A    between atoms: _141  and  _143
REMARK   57  A    between atoms: _143  and  _144
REMARK   58  A    between atoms: _143  and  _146
REMARK   59  A    between atoms: _146  and  _147
REMARK   60  A    between atoms: _153  and  _155
REMARK   61  A    between atoms: _155  and  _156
REMARK   62  A    between atoms: _155  and  _158
REMARK   63  A    between atoms: _158  and  _159
REMARK   64  A    between atoms: _162  and  _164
REMARK   65  A    between atoms: _164  and  _165
REMARK   66  A    between atoms: _164  and  _167
REMARK   67  A    between atoms: _167  and  _168
REMARK   68  A    between atoms: _171  and  _173
REMARK   69  A    between atoms: _173  and  _174
REMARK   70  A    between atoms: _173  and  _176
REMARK   71  A    between atoms: _176  and  _177
REMARK   72  A    between atoms: _182  and  _183
REMARK   73  A    between atoms: _185  and  _187
REMARK   74  A    between atoms: _187  and  _188
REMARK   75  A    between atoms: _187  and  _190
REMARK   76  A    between atoms: _190  and  _191
REMARK   77  A    between atoms: _193  and  _195
REMARK   78  A    between atoms: _195  and  _196
REMARK   79  A    between atoms: _199  and  _201
REMARK   80  A    between atoms: _201  and  _202
REMARK   81  A    between atoms: _201  and  _204
REMARK   82  A    between atoms: _204  and  _205
REMARK   83  A    between atoms: _208  and  _210
REMARK   84  A    between atoms: _210  and  _211
REMARK   85  A    between atoms: _210  and  _213
REMARK   86  A    between atoms: _213  and  _214
REMARK   87  A    between atoms: _217  and  _219
REMARK   88  A    between atoms: _219  and  _220
REMARK   89  A    between atoms: _219  and  _222
REMARK   90  A    between atoms: _226  and  _227
REMARK   91  A    between atoms: _232  and  _234
REMARK   92  A    between atoms: _234  and  _235
REMARK   93  A    between atoms: _234  and  _237
REMARK   94  A    between atoms: _237  and  _238
REMARK   95  A    between atoms: _238  and  _239
REMARK   96  A    between atoms: _242  and  _244
REMARK   97  A    between atoms: _244  and  _245
REMARK   98  A    between atoms: _244  and  _247
REMARK   99  A    between atoms: _247  and  _248
REMARK  100  A    between atoms: _251  and  _253
REMARK  101  A    between atoms: _253  and  _254
REMARK  102  A    between atoms: _257  and  _259
REMARK  103  A    between atoms: _259  and  _260
REMARK  104  A    between atoms: _259  and  _262
REMARK  105  A    between atoms: _262  and  _263
REMARK  106  A    between atoms: _265  and  _267
REMARK  107  A    between atoms: _267  and  _268
REMARK  108  A    between atoms: _270  and  _272
REMARK  109  A    between atoms: _272  and  _273
REMARK  110  A    between atoms: _275  and  _277
REMARK  111  A    between atoms: _277  and  _278
REMARK  112  A    between atoms: _282  and  _283
REMARK  113  A    between atoms: _288  and  _290
REMARK  114  A    between atoms: _290  and  _291
REMARK  115  A    between atoms: _290  and  _293
REMARK  116  A    between atoms: _293  and  _294
REMARK  117  A    between atoms: _297  and  _299
REMARK  118  A    between atoms: _299  and  _300
REMARK  119  A    between atoms: _299  and  _302
REMARK  120  A    between atoms: _302  and  _303
REMARK  121  A    between atoms: _305  and  _307
REMARK  122  A    between atoms: _307  and  _308
REMARK  123  A    between atoms: _307  and  _310
REMARK  124  A    between atoms: _310  and  _311
REMARK  125  A    between atoms: _311  and  _312
REMARK  126  A    between atoms: _312  and  _313
REMARK  127  A    between atoms: _322  and  _324
REMARK  128  A    between atoms: _324  and  _325
REMARK  129  A    between atoms: _324  and  _327
REMARK  130  A    between atoms: _327  and  _328
REMARK  131  A    between atoms: _328  and  _329
REMARK  132  A    between atoms: _334  and  _336
REMARK  133  A    between atoms: _336  and  _337
REMARK  134  A    between atoms: _339  and  _341
REMARK  135  A    between atoms: _341  and  _342
REMARK  136  A    between atoms: _341  and  _344
REMARK  137  A    between atoms: _344  and  _345
REMARK  138  A    between atoms: _350  and  _351
REMARK  139  A    between atoms: _353  and  _355
REMARK  140  A    between atoms: _355  and  _356
REMARK  141  A    between atoms: _358  and  _360
REMARK  142  A    between atoms: _360  and  _361
REMARK  143  A    between atoms: _360  and  _363
REMARK  144  A    between atoms: _363  and  _364
REMARK  145  A    between atoms: _367  and  _369
REMARK  146  A    between atoms: _369  and  _370
REMARK  147  A    between atoms: _369  and  _372
REMARK  148  A    between atoms: _372  and  _373
REMARK  149  A    between atoms: _376  and  _378
REMARK  150  A    between atoms: _378  and  _379
REMARK  151  A    between atoms: _378  and  _381
REMARK  152  A    between atoms: _381  and  _382
REMARK  153  A    between atoms: _382  and  _383
REMARK  154  A    between atoms: _386  and  _388
REMARK  155  A    between atoms: _388  and  _389
REMARK  156  A    between atoms: _388  and  _391
REMARK  157  A    between atoms: _391  and  _392
REMARK  158  A    between atoms: _395  and  _397
REMARK  159  A    between atoms: _397  and  _398
REMARK  160  A    between atoms: _397  and  _400
REMARK  161  A    between atoms: _400  and  _401
REMARK  162  A    between atoms: _404  and  _406
REMARK  163  A    between atoms: _406  and  _407
REMARK  164  A    between atoms: _406  and  _409
REMARK  165  A    between atoms: _409  and  _410
REMARK  166  A    between atoms: _412  and  _414
REMARK  167  A    between atoms: _414  and  _415
REMARK  168  A    between atoms: _418  and  _420
REMARK  169  A    between atoms: _420  and  _421
REMARK  170  A    between atoms: _420  and  _423
REMARK  171  A    between atoms: _423  and  _424
REMARK  172  A    between atoms: _427  and  _429
REMARK  173  A    between atoms: _429  and  _430
REMARK  174  A    between atoms: _429  and  _432
REMARK  175  A    between atoms: _432  and  _433
REMARK  176  A    between atoms: _436  and  _438
REMARK  177  A    between atoms: _438  and  _439
REMARK  178  A    between atoms: _438  and  _441
REMARK  179  A    between atoms: _441  and  _442
REMARK  180  A    between atoms: _445  and  _447
REMARK  181  A    between atoms: _447  and  _448
REMARK  182  A    between atoms: _447  and  _450
REMARK  183  A    between atoms: _450  and  _451
REMARK  184  A    between atoms: _454  and  _456
REMARK  185  A    between atoms: _456  and  _457
REMARK  186  A    between atoms: _459  and  _461
REMARK  187  A    between atoms: _461  and  _462
REMARK  188  A    between atoms: _465  and  _467
REMARK  189  A    between atoms: _467  and  _468
REMARK  190  A    between atoms: _467  and  _470
REMARK  191  A    between atoms: _473  and  _475
REMARK  192  A    between atoms: _475  and  _476
REMARK  193  A    between atoms: _478  and  _480
REMARK  194  A    between atoms: _480  and  _481
REMARK  195  A    between atoms: _480  and  _483
REMARK  196  A    between atoms: _486  and  _488
REMARK  197  A    between atoms: _488  and  _489
REMARK  198  A    between atoms: _488  and  _491
REMARK  199  A    between atoms: _491  and  _492
REMARK  200  A    between atoms: _495  and  _497
REMARK  201  A    between atoms: _497  and  _498
REMARK  202  A    between atoms: _497  and  _500
REMARK  203  A    between atoms: _500  and  _501
REMARK  204  A    between atoms: _501  and  _502
REMARK  205  A    between atoms: _504  and  _506
REMARK  206  A    between atoms: _506  and  _507
REMARK  207  A    between atoms: _506  and  _509
REMARK  208  A    between atoms: _509  and  _510
REMARK  209  A    between atoms: _515  and  _516
REMARK  210  A    between atoms: _518  and  _520
REMARK  211  A    between atoms: _520  and  _521
REMARK  212  A    between atoms: _520  and  _523
REMARK  213  A    between atoms: _523  and  _524
REMARK  214  A    between atoms: _527  and  _529
REMARK  215  A    between atoms: _529  and  _530
REMARK  216  A    between atoms: _529  and  _532
REMARK  217  A    between atoms: _532  and  _533
REMARK  218  A    between atoms: _538  and  _540
REMARK  219  A    between atoms: _540  and  _541
REMARK  220  A    between atoms: _540  and  _543
REMARK  221  A    between atoms: _543  and  _544
REMARK  222  A    between atoms: _546  and  _548
REMARK  223  A    between atoms: _548  and  _549
REMARK  224  A    between atoms: _551  and  _553
REMARK  225  A    between atoms: _553  and  _554
REMARK  226  A    between atoms: _553  and  _556
REMARK  227  A    between atoms: _556  and  _557
REMARK  228  A    between atoms: _560  and  _562
REMARK  229  A    between atoms: _562  and  _563
REMARK  230  A    between atoms: _562  and  _565
REMARK  231  A    between atoms: _565  and  _566
REMARK  232  A    between atoms: _569  and  _571
REMARK  233  A    between atoms: _571  and  _572
REMARK  234  A    between atoms: _571  and  _574
REMARK  235  A    between atoms: _574  and  _575
REMARK  236  A    between atoms: _581  and  _583
REMARK  237  A    between atoms: _583  and  _584
REMARK  238  A    between atoms: _583  and  _586
REMARK  239  A    between atoms: _586  and  _587
REMARK  240  A    between atoms: _590  and  _592
REMARK  241  A    between atoms: _592  and  _593
REMARK  242  A    between atoms: _592  and  _595
REMARK  243  A    between atoms: _598  and  _600
REMARK  244  A    between atoms: _600  and  _601
REMARK  245  A    between atoms: _600  and  _603
REMARK  246  A    between atoms: _603  and  _604
REMARK  247  A    between atoms: _607  and  _609
REMARK  248  A    between atoms: _609  and  _610
REMARK  249  A    between atoms: _609  and  _612
REMARK  250  A    between atoms: _612  and  _613
REMARK  251  A    between atoms: _613  and  _614
REMARK  252  A    between atoms: _614  and  _615
REMARK  253  A    between atoms: _624  and  _626
REMARK  254  A    between atoms: _626  and  _627
REMARK  255  A    between atoms: _626  and  _629
REMARK  256  A    between atoms: _629  and  _630
REMARK                            x       y       z     vdW  Elec       q    Type
REMARK                         _______ _______ _______ _____ _____    ______ ____
ROOT
ATOM      1  CA  ASN A   2     -28.748  15.428  -0.322  0.00  0.00    +0.158 C 
ENDROOT
BRANCH   1   4
ATOM      2  C   MET A   1     -29.537  13.640   1.045  0.00  0.00    +0.238 C 
ATOM      3  O   MET A   1     -30.602  14.243   1.198  0.00  0.00    -0.274 OA
ATOM      4  N   ASN A   2     -28.548  14.143   0.336  0.00  0.00    -0.297 N 
ATOM      5  H   ASN A   2     -27.645  13.635   0.248  0.00  0.00    +0.150 HD
BRANCH   2   6
ATOM      6  CA  MET A   1     -29.332  12.303   1.681  0.00  0.00    +0.146 C 
BRANCH   6   7
ATOM      7  N   MET A   1     -30.240  12.239   2.832  0.00  0.00    -0.238 NA
ATOM      8  H   MET A   1     -31.239  11.992   2.679  0.00  0.00    +0.142 HD
ENDBRANCH   6   7
BRANCH   6   9
ATOM      9  CB  MET A   1     -29.663  11.219   0.658  0.00  0.00    +0.038 C 
BRANCH   9  10
ATOM     10  CG  MET A   1     -29.668   9.808   1.192  0.00  0.00    +0.060 C 
BRANCH  10  11
ATOM     11  SD  MET A   1     -28.032   9.368   1.757  0.00  0.00    -0.139 S 
ATOM     12  CE  MET A   1     -27.251   9.119   0.181  0.00  0.00    +0.069 C 
ENDBRANCH  10  11
ENDBRANCH   9  10
ENDBRANCH   6   9
ENDBRANCH   2   6
ENDBRANCH   1   4
BRANCH   1  13
ATOM     13  C   ASN A   2     -29.216  15.297  -1.738  0.00  0.00    +0.241 C 
ATOM     14  N   SER A   3     -30.183  16.129  -2.091  0.00  0.00    -0.296 N 
ATOM     15  H   SER A   3     -30.630  16.734  -1.373  0.00  0.00    +0.150 HD
ATOM     16  O   ASN A   2     -28.755  14.458  -2.485  0.00  0.00    -0.273 OA
BRANCH  14  17
ATOM     17  CA  SER A   3     -30.624  16.204  -3.466  0.00  0.00    +0.166 C 
BRANCH  17  18
ATOM     18  C   SER A   3     -29.615  16.889  -4.350  0.00  0.00    +0.229 C 
ATOM     19  O   SER A   3     -29.695  16.693  -5.564  0.00  0.00    -0.286 OA
ENDBRANCH  17  18
BRANCH  17  20
ATOM     20  CB  SER A   3     -31.961  16.938  -3.566  0.00  0.00    +0.165 C 
BRANCH  20  21
ATOM     21  OG  SER A   3     -32.904  15.977  -3.983  0.00  0.00    -0.380 OA
ATOM     22  H   SER A   3     -32.632  15.609  -4.861  0.00  0.00    +0.211 HD
ENDBRANCH  20  21
ENDBRANCH  17  20
ENDBRANCH  14  17
ENDBRANCH   1  13
BRANCH   1  23
ATOM     23  CB  ASN A   2     -27.506  16.284  -0.277  0.00  0.00    +0.114 C 
BRANCH  23  24
ATOM     24  CG  ASN A   2     -27.310  16.921   1.066  0.00  0.00    +0.222 C 
ATOM     25  OD1 ASN A   2     -28.257  17.429   1.671  0.00  0.00    -0.275 OA
ATOM     26  ND2 ASN A   2     -26.086  16.887   1.553  0.00  0.00    -0.329 N 
ATOM     27 HD21 ASN A   2     -25.886  17.300   2.486  0.00  0.00    +0.145 HD
ATOM     28 HD22 ASN A   2     -25.320  16.447   1.004  0.00  0.00    +0.145 HD
ENDBRANCH  23  24
ENDBRANCH   1  23
TORSDOF 13
REMARK  Name = ../refined-set-2016/3ies/3ies_pocket.pdb
REMARK  256 active torsions:
REMARK  status: ('A' for Active; 'I' for Inactive)
REMARK    1  A    between atoms: _1  and  _3
REMARK    2  A    between atoms: _3  and  _4
REMARK    3  A    between atoms: _3  and  _6
REMARK    4  A    between atoms: _6  and  _7
REMARK    5  A    between atoms: _7  and  _8
REMARK    6  A    between atoms: _10  and  _12
REMARK    7  A    between atoms: _12  and  _13
REMARK    8  A    between atoms: _12  and  _15
REMARK    9  A    between atoms: _15  and  _16
REMARK   10  A    between atoms: _21  and  _23
REMARK   11  A    between atoms: _23  and  _24
REMARK   12  A    between atoms: _23  and  _26
REMARK   13  A    between atoms: _26  and  _27
REMARK   14  A    between atoms: _29  and  _31
REMARK   15  A    between atoms: _31  and  _32
REMARK   16  A    between atoms: _31  and  _34
REMARK   17  A    between atoms: _37  and  _39
REMARK   18  A    between atoms: _39  and  _40
REMARK   19  A    between atoms: _39  and  _42
REMARK   20  A    between atoms: _42  and  _43
REMARK   21  A    between atoms: _43  and  _44
REMARK   22  A    between atoms: _44  and  _45
REMARK   23  A    between atoms: _54  and  _56
REMARK   24  A    between atoms: _56  and  _57
REMARK   25  A    between atoms: _56  and  _59
REMARK   26  A    between atoms: _59  and  _60
REMARK   27  A    between atoms: _65  and  _67
REMARK   28  A    between atoms: _67  and  _68
REMARK   29  A    between atoms: _71  and  _73
REMARK   30  A    between atoms: _73  and  _74
REMARK   31  A    between atoms: _73  and  _76
REMARK   32  A    between atoms: _76  and  _77
REMARK   33  A    between atoms: _83  and  _85
REMARK   34  A    between atoms: _85  and  _86
REMARK   35  A    between atoms: _88  and  _90
REMARK   36  A    between atoms: _90  and  _91
REMARK   37  A    between atoms: _90  and  _93
REMARK   38  A    between atoms: _93  and  _94
REMARK   39  A    between atoms: _99  and  _101
REMARK   40  A    between atoms: _101  and  _102
REMARK   41  A    between atoms: _101  and  _104
REMARK   42  A    between atoms: _104  and  _105
REMARK   43  A    between atoms: _110  and  _112
REMARK   44  A    between atoms: _112  and  _113
REMARK   45  A    between atoms: _115  and  _117
REMARK   46  A    between atoms: _117  and  _118
REMARK   47  A    between atoms: _117  and  _120
REMARK   48  A    between atoms: _120  and  _121
REMARK   49  A    between atoms: _127  and  _129
REMARK   50  A    between atoms: _129  and  _130
REMARK   51  A    between atoms: _132  and  _134
REMARK   52  A    between atoms: _134  and  _135
REMARK   53  A    between atoms: _134  and  _137
REMARK   54  A    between atoms: _137  and  _138
REMARK   55  A    between atoms: _138  and  _139
REMARK   56  A    between atoms: _141  and  _143
REMARK   57  A    between atoms: _143  and  _144
REMARK   58  A    between atoms: _143  and  _146
REMARK   59  A    between atoms: _146  and  _147
REMARK   60  A    between atoms: _153  and  _155
REMARK   61  A    between atoms: _155  and  _156
REMARK   62  A    between atoms: _155  and  _158
REMARK   63  A    between atoms: _158  and  _159
REMARK   64  A    between atoms: _162  and  _164
REMARK   65  A    between atoms: _164  and  _165
REMARK   66  A    between atoms: _164  and  _167
REMARK   67  A    between atoms: _167  and  _168
REMARK   68  A    between atoms: _171  and  _173
REMARK   69  A    between atoms: _173  and  _174
REMARK   70  A    between atoms: _173  and  _176
REMARK   71  A    between atoms: _176  and  _177
REMARK   72  A    between atoms: _182  and  _183
REMARK   73  A    between atoms: _185  and  _187
REMARK   74  A    between atoms: _187  and  _188
REMARK   75  A    between atoms: _187  and  _190
REMARK   76  A    between atoms: _190  and  _191
REMARK   77  A    between atoms: _193  and  _195
REMARK   78  A    between atoms: _195  and  _196
REMARK   79  A    between atoms: _199  and  _201
REMARK   80  A    between atoms: _201  and  _202
REMARK   81  A    between atoms: _201  and  _204
REMARK   82  A    between atoms: _204  and  _205
REMARK   83  A    between atoms: _208  and  _210
REMARK   84  A    between atoms: _210  and  _211
REMARK   85  A    between atoms: _210  and  _213
REMARK   86  A    between atoms: _213  and  _214
REMARK   87  A    between atoms: _217  and  _219
REMARK   88  A    between atoms: _219  and  _220
REMARK   89  A    between atoms: _219  and  _222
REMARK   90  A    between atoms: _226  and  _227
REMARK   91  A    between atoms: _232  and  _234
REMARK   92  A    between atoms: _234  and  _235
REMARK   93  A    between atoms: _234  and  _237
REMARK   94  A    between atoms: _237  and  _238
REMARK   95  A    between atoms: _238  and  _239
REMARK   96  A    between atoms: _242  and  _244
REMARK   97  A    between atoms: _244  and  _245
REMARK   98  A    between atoms: _244  and  _247
REMARK   99  A    between atoms: _247  and  _248
REMARK  100  A    between atoms: _251  and  _253
REMARK  101  A    between atoms: _253  and  _254
REMARK  102  A    between atoms: _257  and  _259
REMARK  103  A    between atoms: _259  and  _260
REMARK  104  A    between atoms: _259  and  _262
REMARK  105  A    between atoms: _262  and  _263
REMARK  106  A    between atoms: _265  and  _267
REMARK  107  A    between atoms: _267  and  _268
REMARK  108  A    between atoms: _270  and  _272
REMARK  109  A    between atoms: _272  and  _273
REMARK  110  A    between atoms: _275  and  _277
REMARK  111  A    between atoms: _277  and  _278
REMARK  112  A    between atoms: _282  and  _283
REMARK  113  A    between atoms: _288  and  _290
REMARK  114  A    between atoms: _290  and  _291
REMARK  115  A    between atoms: _290  and  _293
REMARK  116  A    between atoms: _293  and  _294
REMARK  117  A    between atoms: _297  and  _299
REMARK  118  A    between atoms: _299  and  _300
REMARK  119  A    between atoms: _299  and  _302
REMARK  120  A    between atoms: _302  and  _303
REMARK  121  A    between atoms: _305  and  _307
REMARK  122  A    between atoms: _307  and  _308
REMARK  123  A    between atoms: _307  and  _310
REMARK  124  A    between atoms: _310  and  _311
REMARK  125  A    between atoms: _311  and  _312
REMARK  126  A    between atoms: _312  and  _313
REMARK  127  A    between atoms: _322  and  _324
REMARK  128  A    between atoms: _324  and  _325
REMARK  129  A    between atoms: _324  and  _327
REMARK  130  A    between atoms: _327  and  _328
REMARK  131  A    between atoms: _328  and  _329
REMARK  132  A    between atoms: _334  and  _336
REMARK  133  A    between atoms: _336  and  _337
REMARK  134  A    between atoms: _339  and  _341
REMARK  135  A    between atoms: _341  and  _342
REMARK  136  A    between atoms: _341  and  _344
REMARK  137  A    between atoms: _344  and  _345
REMARK  138  A    between atoms: _350  and  _351
REMARK  139  A    between atoms: _353  and  _355
REMARK  140  A    between atoms: _355  and  _356
REMARK  141  A    between atoms: _358  and  _360
REMARK  142  A    between atoms: _360  and  _361
REMARK  143  A    between atoms: _360  and  _363
REMARK  144  A    between atoms: _363  and  _364
REMARK  145  A    between atoms: _367  and  _369
REMARK  146  A    between atoms: _369  and  _370
REMARK  147  A    between atoms: _369  and  _372
REMARK  148  A    between atoms: _372  and  _373
REMARK  149  A    between atoms: _376  and  _378
REMARK  150  A    between atoms: _378  and  _379
REMARK  151  A    between atoms: _378  and  _381
REMARK  152  A    between atoms: _381  and  _382
REMARK  153  A    between atoms: _382  and  _383
REMARK  154  A    between atoms: _386  and  _388
REMARK  155  A    between atoms: _388  and  _389
REMARK  156  A    between atoms: _388  and  _391
REMARK  157  A    between atoms: _391  and  _392
REMARK  158  A    between atoms: _395  and  _397
REMARK  159  A    between atoms: _397  and  _398
REMARK  160  A    between atoms: _397  and  _400
REMARK  161  A    between atoms: _400  and  _401
REMARK  162  A    between atoms: _404  and  _406
REMARK  163  A    between atoms: _406  and  _407
REMARK  164  A    between atoms: _406  and  _409
REMARK  165  A    between atoms: _409  and  _410
REMARK  166  A    between atoms: _412  and  _414
REMARK  167  A    between atoms: _414  and  _415
REMARK  168  A    between atoms: _418  and  _420
REMARK  169  A    between atoms: _420  and  _421
REMARK  170  A    between atoms: _420  and  _423
REMARK  171  A    between atoms: _423  and  _424
REMARK  172  A    between atoms: _427  and  _429
REMARK  173  A    between atoms: _429  and  _430
REMARK  174  A    between atoms: _429  and  _432
REMARK  175  A    between atoms: _432  and  _433
REMARK  176  A    between atoms: _436  and  _438
REMARK  177  A    between atoms: _438  and  _439
REMARK  178  A    between atoms: _438  and  _441
REMARK  179  A    between atoms: _441  and  _442
REMARK  180  A    between atoms: _445  and  _447
REMARK  181  A    between atoms: _447  and  _448
REMARK  182  A    between atoms: _447  and  _450
REMARK  183  A    between atoms: _450  and  _451
REMARK  184  A    between atoms: _454  and  _456
REMARK  185  A    between atoms: _456  and  _457
REMARK  186  A    between atoms: _459  and  _461
REMARK  187  A    between atoms: _461  and  _462
REMARK  188  A    between atoms: _465  and  _467
REMARK  189  A    between atoms: _467  and  _468
REMARK  190  A    between atoms: _467  and  _470
REMARK  191  A    between atoms: _473  and  _475
REMARK  192  A    between atoms: _475  and  _476
REMARK  193  A    between atoms: _478  and  _480
REMARK  194  A    between atoms: _480  and  _481
REMARK  195  A    between atoms: _480  and  _483
REMARK  196  A    between atoms: _486  and  _488
REMARK  197  A    between atoms: _488  and  _489
REMARK  198  A    between atoms: _488  and  _491
REMARK  199  A    between atoms: _491  and  _492
REMARK  200  A    between atoms: _495  and  _497
REMARK  201  A    between atoms: _497  and  _498
REMARK  202  A    between atoms: _497  and  _500
REMARK  203  A    between atoms: _500  and  _501
REMARK  204  A    between atoms: _501  and  _502
REMARK  205  A    between atoms: _504  and  _506
REMARK  206  A    between atoms: _506  and  _507
REMARK  207  A    between atoms: _506  and  _509
REMARK  208  A    between atoms: _509  and  _510
REMARK  209  A    between atoms: _515  and  _516
REMARK  210  A    between atoms: _518  and  _520
REMARK  211  A    between atoms: _520  and  _521
REMARK  212  A    between atoms: _520  and  _523
REMARK  213  A    between atoms: _523  and  _524
REMARK  214  A    between atoms: _527  and  _529
REMARK  215  A    between atoms: _529  and  _530
REMARK  216  A    between atoms: _529  and  _532
REMARK  217  A    between atoms: _532  and  _533
REMARK  218  A    between atoms: _538  and  _540
REMARK  219  A    between atoms: _540  and  _541
REMARK  220  A    between atoms: _540  and  _543
REMARK  221  A    between atoms: _543  and  _544
REMARK  222  A    between atoms: _546  and  _548
REMARK  223  A    between atoms: _548  and  _549
REMARK  224  A    between atoms: _551  and  _553
REMARK  225  A    between atoms: _553  and  _554
REMARK  226  A    between atoms: _553  and  _556
REMARK  227  A    between atoms: _556  and  _557
REMARK  228  A    between atoms: _560  and  _562
REMARK  229  A    between atoms: _562  and  _563
REMARK  230  A    between atoms: _562  and  _565
REMARK  231  A    between atoms: _565  and  _566
REMARK  232  A    between atoms: _569  and  _571
REMARK  233  A    between atoms: _571  and  _572
REMARK  234  A    between atoms: _571  and  _574
REMARK  235  A    between atoms: _574  and  _575
REMARK  236  A    between atoms: _581  and  _583
REMARK  237  A    between atoms: _583  and  _584
REMARK  238  A    between atoms: _583  and  _586
REMARK  239  A    between atoms: _586  and  _587
REMARK  240  A    between atoms: _590  and  _592
REMARK  241  A    between atoms: _592  and  _593
REMARK  242  A    between atoms: _592  and  _595
REMARK  243  A    between atoms: _598  and  _600
REMARK  244  A    between atoms: _600  and  _601
REMARK  245  A    between atoms: _600  and  _603
REMARK  246  A    between atoms: _603  and  _604
REMARK  247  A    between atoms: _607  and  _609
REMARK  248  A    between atoms: _609  and  _610
REMARK  249  A    between atoms: _609  and  _612
REMARK  250  A    between atoms: _612  and  _613
REMARK  251  A    between atoms: _613  and  _614
REMARK  252  A    between atoms: _614  and  _615
REMARK  253  A    between atoms: _624  and  _626
REMARK  254  A    between atoms: _626  and  _627
REMARK  255  A    between atoms: _626  and  _629
REMARK  256  A    between atoms: _629  and  _630
REMARK                            x       y       z     vdW  Elec       q    Type
REMARK                         _______ _______ _______ _____ _____    ______ ____
ROOT
ATOM      1  CA  VAL A   1     -34.116  13.708   1.551  0.00  0.00    +0.133 C 
ENDROOT
BRANCH   1   2
ATOM      2  CB  VAL A   1     -33.673  12.978   0.268  0.00  0.00    +0.023 C 
ATOM      3  CG2 VAL A   1     -34.484  11.745   0.026  0.00  0.00    +0.002 C 
ATOM      4  CG1 VAL A   1     -33.779  13.930  -0.915  0.00  0.00    +0.002 C 
ENDBRANCH   1   2
BRANCH   1   5
ATOM      5  N   VAL A   1     -33.203  14.750   1.855  0.00  0.00    -0.239 NA
ATOM      6  H   VAL A   1     -32.185  14.562   1.758  0.00  0.00    +0.142 HD
ENDBRANCH   1   5
BRANCH   1   7
ATOM      7  C   VAL A   1     -34.148  12.756   2.721  0.00  0.00    +0.224 C 
ATOM      8  O   VAL A   1     -33.199  12.043   2.952  0.00  0.00    -0.287 OA
ENDBRANCH   1   7
TORSDOF 3
REMARK  Name = ../refined-set-2016/3ies/3ies_pocket.pdb
REMARK  256 active torsions:
REMARK  status: ('A' for Active; 'I' for Inactive)
REMARK    1  A    between atoms: _1  and  _3
REMARK    2  A    between atoms: _3  and  _4
REMARK    3  A    between atoms: _3  and  _6
REMARK    4  A    between atoms: _6  and  _7
REMARK    5  A    between atoms: _7  and  _8
REMARK    6  A    between atoms: _10  and  _12
REMARK    7  A    between atoms: _12  and  _13
REMARK    8  A    between atoms: _12  and  _15
REMARK    9  A    between atoms: _15  and  _16
REMARK   10  A    between atoms: _21  and  _23
REMARK   11  A    between atoms: _23  and  _24
REMARK   12  A    between atoms: _23  and  _26
REMARK   13  A    between atoms: _26  and  _27
REMARK   14  A    between atoms: _29  and  _31
REMARK   15  A    between atoms: _31  and  _32
REMARK   16  A    between atoms: _31  and  _34
REMARK   17  A    between atoms: _37  and  _39
REMARK   18  A    between atoms: _39  and  _40
REMARK   19  A    between atoms: _39  and  _42
REMARK   20  A    between atoms: _42  and  _43
REMARK   21  A    between atoms: _43  and  _44
REMARK   22  A    between atoms: _44  and  _45
REMARK   23  A    between atoms: _54  and  _56
REMARK   24  A    between atoms: _56  and  _57
REMARK   25  A    between atoms: _56  and  _59
REMARK   26  A    between atoms: _59  and  _60
REMARK   27  A    between atoms: _65  and  _67
REMARK   28  A    between atoms: _67  and  _68
REMARK   29  A    between atoms: _71  and  _73
REMARK   30  A    between atoms: _73  and  _74
REMARK   31  A    between atoms: _73  and  _76
REMARK   32  A    between atoms: _76  and  _77
REMARK   33  A    between atoms: _83  and  _85
REMARK   34  A    between atoms: _85  and  _86
REMARK   35  A    between atoms: _88  and  _90
REMARK   36  A    between atoms: _90  and  _91
REMARK   37  A    between atoms: _90  and  _93
REMARK   38  A    between atoms: _93  and  _94
REMARK   39  A    between atoms: _99  and  _101
REMARK   40  A    between atoms: _101  and  _102
REMARK   41  A    between atoms: _101  and  _104
REMARK   42  A    between atoms: _104  and  _105
REMARK   43  A    between atoms: _110  and  _112
REMARK   44  A    between atoms: _112  and  _113
REMARK   45  A    between atoms: _115  and  _117
REMARK   46  A    between atoms: _117  and  _118
REMARK   47  A    between atoms: _117  and  _120
REMARK   48  A    between atoms: _120  and  _121
REMARK   49  A    between atoms: _127  and  _129
REMARK   50  A    between atoms: _129  and  _130
REMARK   51  A    between atoms: _132  and  _134
REMARK   52  A    between atoms: _134  and  _135
REMARK   53  A    between atoms: _134  and  _137
REMARK   54  A    between atoms: _137  and  _138
REMARK   55  A    between atoms: _138  and  _139
REMARK   56  A    between atoms: _141  and  _143
REMARK   57  A    between atoms: _143  and  _144
REMARK   58  A    between atoms: _143  and  _146
REMARK   59  A    between atoms: _146  and  _147
REMARK   60  A    between atoms: _153  and  _155
REMARK   61  A    between atoms: _155  and  _156
REMARK   62  A    between atoms: _155  and  _158
REMARK   63  A    between atoms: _158  and  _159
REMARK   64  A    between atoms: _162  and  _164
REMARK   65  A    between atoms: _164  and  _165
REMARK   66  A    between atoms: _164  and  _167
REMARK   67  A    between atoms: _167  and  _168
REMARK   68  A    between atoms: _171  and  _173
REMARK   69  A    between atoms: _173  and  _174
REMARK   70  A    between atoms: _173  and  _176
REMARK   71  A    between atoms: _176  and  _177
REMARK   72  A    between atoms: _182  and  _183
REMARK   73  A    between atoms: _185  and  _187
REMARK   74  A    between atoms: _187  and  _188
REMARK   75  A    between atoms: _187  and  _190
REMARK   76  A    between atoms: _190  and  _191
REMARK   77  A    between atoms: _193  and  _195
REMARK   78  A    between atoms: _195  and  _196
REMARK   79  A    between atoms: _199  and  _201
REMARK   80  A    between atoms: _201  and  _202
REMARK   81  A    between atoms: _201  and  _204
REMARK   82  A    between atoms: _204  and  _205
REMARK   83  A    between atoms: _208  and  _210
REMARK   84  A    between atoms: _210  and  _211
REMARK   85  A    between atoms: _210  and  _213
REMARK   86  A    between atoms: _213  and  _214
REMARK   87  A    between atoms: _217  and  _219
REMARK   88  A    between atoms: _219  and  _220
REMARK   89  A    between atoms: _219  and  _222
REMARK   90  A    between atoms: _226  and  _227
REMARK   91  A    between atoms: _232  and  _234
REMARK   92  A    between atoms: _234  and  _235
REMARK   93  A    between atoms: _234  and  _237
REMARK   94  A    between atoms: _237  and  _238
REMARK   95  A    between atoms: _238  and  _239
REMARK   96  A    between atoms: _242  and  _244
REMARK   97  A    between atoms: _244  and  _245
REMARK   98  A    between atoms: _244  and  _247
REMARK   99  A    between atoms: _247  and  _248
REMARK  100  A    between atoms: _251  and  _253
REMARK  101  A    between atoms: _253  and  _254
REMARK  102  A    between atoms: _257  and  _259
REMARK  103  A    between atoms: _259  and  _260
REMARK  104  A    between atoms: _259  and  _262
REMARK  105  A    between atoms: _262  and  _263
REMARK  106  A    between atoms: _265  and  _267
REMARK  107  A    between atoms: _267  and  _268
REMARK  108  A    between atoms: _270  and  _272
REMARK  109  A    between atoms: _272  and  _273
REMARK  110  A    between atoms: _275  and  _277
REMARK  111  A    between atoms: _277  and  _278
REMARK  112  A    between atoms: _282  and  _283
REMARK  113  A    between atoms: _288  and  _290
REMARK  114  A    between atoms: _290  and  _291
REMARK  115  A    between atoms: _290  and  _293
REMARK  116  A    between atoms: _293  and  _294
REMARK  117  A    between atoms: _297  and  _299
REMARK  118  A    between atoms: _299  and  _300
REMARK  119  A    between atoms: _299  and  _302
REMARK  120  A    between atoms: _302  and  _303
REMARK  121  A    between atoms: _305  and  _307
REMARK  122  A    between atoms: _307  and  _308
REMARK  123  A    between atoms: _307  and  _310
REMARK  124  A    between atoms: _310  and  _311
REMARK  125  A    between atoms: _311  and  _312
REMARK  126  A    between atoms: _312  and  _313
REMARK  127  A    between atoms: _322  and  _324
REMARK  128  A    between atoms: _324  and  _325
REMARK  129  A    between atoms: _324  and  _327
REMARK  130  A    between atoms: _327  and  _328
REMARK  131  A    between atoms: _328  and  _329
REMARK  132  A    between atoms: _334  and  _336
REMARK  133  A    between atoms: _336  and  _337
REMARK  134  A    between atoms: _339  and  _341
REMARK  135  A    between atoms: _341  and  _342
REMARK  136  A    between atoms: _341  and  _344
REMARK  137  A    between atoms: _344  and  _345
REMARK  138  A    between atoms: _350  and  _351
REMARK  139  A    between atoms: _353  and  _355
REMARK  140  A    between atoms: _355  and  _356
REMARK  141  A    between atoms: _358  and  _360
REMARK  142  A    between atoms: _360  and  _361
REMARK  143  A    between atoms: _360  and  _363
REMARK  144  A    between atoms: _363  and  _364
REMARK  145  A    between atoms: _367  and  _369
REMARK  146  A    between atoms: _369  and  _370
REMARK  147  A    between atoms: _369  and  _372
REMARK  148  A    between atoms: _372  and  _373
REMARK  149  A    between atoms: _376  and  _378
REMARK  150  A    between atoms: _378  and  _379
REMARK  151  A    between atoms: _378  and  _381
REMARK  152  A    between atoms: _381  and  _382
REMARK  153  A    between atoms: _382  and  _383
REMARK  154  A    between atoms: _386  and  _388
REMARK  155  A    between atoms: _388  and  _389
REMARK  156  A    between atoms: _388  and  _391
REMARK  157  A    between atoms: _391  and  _392
REMARK  158  A    between atoms: _395  and  _397
REMARK  159  A    between atoms: _397  and  _398
REMARK  160  A    between atoms: _397  and  _400
REMARK  161  A    between atoms: _400  and  _401
REMARK  162  A    between atoms: _404  and  _406
REMARK  163  A    between atoms: _406  and  _407
REMARK  164  A    between atoms: _406  and  _409
REMARK  165  A    between atoms: _409  and  _410
REMARK  166  A    between atoms: _412  and  _414
REMARK  167  A    between atoms: _414  and  _415
REMARK  168  A    between atoms: _418  and  _420
REMARK  169  A    between atoms: _420  and  _421
REMARK  170  A    between atoms: _420  and  _423
REMARK  171  A    between atoms: _423  and  _424
REMARK  172  A    between atoms: _427  and  _429
REMARK  173  A    between atoms: _429  and  _430
REMARK  174  A    between atoms: _429  and  _432
REMARK  175  A    between atoms: _432  and  _433
REMARK  176  A    between atoms: _436  and  _438
REMARK  177  A    between atoms: _438  and  _439
REMARK  178  A    between atoms: _438  and  _441
REMARK  179  A    between atoms: _441  and  _442
REMARK  180  A    between atoms: _445  and  _447
REMARK  181  A    between atoms: _447  and  _448
REMARK  182  A    between atoms: _447  and  _450
REMARK  183  A    between atoms: _450  and  _451
REMARK  184  A    between atoms: _454  and  _456
REMARK  185  A    between atoms: _456  and  _457
REMARK  186  A    between atoms: _459  and  _461
REMARK  187  A    between atoms: _461  and  _462
REMARK  188  A    between atoms: _465  and  _467
REMARK  189  A    between atoms: _467  and  _468
REMARK  190  A    between atoms: _467  and  _470
REMARK  191  A    between atoms: _473  and  _475
REMARK  192  A    between atoms: _475  and  _476
REMARK  193  A    between atoms: _478  and  _480
REMARK  194  A    between atoms: _480  and  _481
REMARK  195  A    between atoms: _480  and  _483
REMARK  196  A    between atoms: _486  and  _488
REMARK  197  A    between atoms: _488  and  _489
REMARK  198  A    between atoms: _488  and  _491
REMARK  199  A    between atoms: _491  and  _492
REMARK  200  A    between atoms: _495  and  _497
REMARK  201  A    between atoms: _497  and  _498
REMARK  202  A    between atoms: _497  and  _500
REMARK  203  A    between atoms: _500  and  _501
REMARK  204  A    between atoms: _501  and  _502
REMARK  205  A    between atoms: _504  and  _506
REMARK  206  A    between atoms: _506  and  _507
REMARK  207  A    between atoms: _506  and  _509
REMARK  208  A    between atoms: _509  and  _510
REMARK  209  A    between atoms: _515  and  _516
REMARK  210  A    between atoms: _518  and  _520
REMARK  211  A    between atoms: _520  and  _521
REMARK  212  A    between atoms: _520  and  _523
REMARK  213  A    between atoms: _523  and  _524
REMARK  214  A    between atoms: _527  and  _529
REMARK  215  A    between atoms: _529  and  _530
REMARK  216  A    between atoms: _529  and  _532
REMARK  217  A    between atoms: _532  and  _533
REMARK  218  A    between atoms: _538  and  _540
REMARK  219  A    between atoms: _540  and  _541
REMARK  220  A    between atoms: _540  and  _543
REMARK  221  A    between atoms: _543  and  _544
REMARK  222  A    between atoms: _546  and  _548
REMARK  223  A    between atoms: _548  and  _549
REMARK  224  A    between atoms: _551  and  _553
REMARK  225  A    between atoms: _553  and  _554
REMARK  226  A    between atoms: _553  and  _556
REMARK  227  A    between atoms: _556  and  _557
REMARK  228  A    between atoms: _560  and  _562
REMARK  229  A    between atoms: _562  and  _563
REMARK  230  A    between atoms: _562  and  _565
REMARK  231  A    between atoms: _565  and  _566
REMARK  232  A    between atoms: _569  and  _571
REMARK  233  A    between atoms: _571  and  _572
REMARK  234  A    between atoms: _571  and  _574
REMARK  235  A    between atoms: _574  and  _575
REMARK  236  A    between atoms: _581  and  _583
REMARK  237  A    between atoms: _583  and  _584
REMARK  238  A    between atoms: _583  and  _586
REMARK  239  A    between atoms: _586  and  _587
REMARK  240  A    between atoms: _590  and  _592
REMARK  241  A    between atoms: _592  and  _593
REMARK  242  A    between atoms: _592  and  _595
REMARK  243  A    between atoms: _598  and  _600
REMARK  244  A    between atoms: _600  and  _601
REMARK  245  A    between atoms: _600  and  _603
REMARK  246  A    between atoms: _603  and  _604
REMARK  247  A    between atoms: _607  and  _609
REMARK  248  A    between atoms: _609  and  _610
REMARK  249  A    between atoms: _609  and  _612
REMARK  250  A    between atoms: _612  and  _613
REMARK  251  A    between atoms: _613  and  _614
REMARK  252  A    between atoms: _614  and  _615
REMARK  253  A    between atoms: _624  and  _626
REMARK  254  A    between atoms: _626  and  _627
REMARK  255  A    between atoms: _626  and  _629
REMARK  256  A    between atoms: _629  and  _630
REMARK                            x       y       z     vdW  Elec       q    Type
REMARK                         _______ _______ _______ _____ _____    ______ ____
ROOT
ATOM      1  NE  ARG A   1     -29.577  -1.745  -2.970  0.00  0.00    -0.265 N 
ATOM      2  HE  ARG A   1     -28.737  -1.683  -2.360  0.00  0.00    +0.259 HD
ATOM      3  CZ  ARG A   1     -29.435  -2.250  -4.179  0.00  0.00    +0.342 C 
ATOM      4  NH2 ARG A   1     -28.247  -2.692  -4.584  0.00  0.00    -0.292 N 
ATOM      5 HH21 ARG A   1     -27.427  -2.639  -3.946  0.00  0.00    +0.255 HD
ATOM      6 HH22 ARG A   1     -28.138  -3.090  -5.539  0.00  0.00    +0.255 HD
ATOM      7  NH1 ARG A   1     -30.498  -2.339  -4.988  0.00  0.00    -0.292 N 
ATOM      8 HH11 ARG A   1     -31.429  -2.011  -4.661  0.00  0.00    +0.255 HD
ATOM      9 HH12 ARG A   1     -30.393  -2.737  -5.943  0.00  0.00    +0.255 HD
ENDROOT
BRANCH   1  10
ATOM     10  CD  ARG A   1     -30.863  -1.264  -2.437  0.00  0.00    +0.174 C 
BRANCH  10  11
ATOM     11  CG  ARG A   1     -30.850  -1.129  -0.905  0.00  0.00    +0.045 C 
BRANCH  11  12
ATOM     12  CB  ARG A   1     -32.268  -1.011  -0.308  0.00  0.00    +0.029 C 
BRANCH  12  13
ATOM     13  CA  ARG A   1     -33.181  -2.208  -0.634  0.00  0.00    +0.133 C 
BRANCH  13  14
ATOM     14  N   ARG A   1     -34.470  -2.090   0.078  0.00  0.00    -0.239 NA
ATOM     15  H   ARG A   1     -34.695  -1.220   0.602  0.00  0.00    +0.142 HD
ENDBRANCH  13  14
BRANCH  13  16
ATOM     16  C   ARG A   1     -32.461  -3.520  -0.359  0.00  0.00    +0.224 C 
ATOM     17  O   ARG A   1     -31.902  -4.141  -1.284  0.00  0.00    -0.287 OA
ENDBRANCH  13  16
ENDBRANCH  12  13
ENDBRANCH  11  12
ENDBRANCH  10  11
ENDBRANCH   1  10
TORSDOF 6
REMARK  Name = ../refined-set-2016/3ies/3ies_pocket.pdb
REMARK  256 active torsions:
REMARK  status: ('A' for Active; 'I' for Inactive)
REMARK    1  A    between atoms: _1  and  _3
REMARK    2  A    between atoms: _3  and  _4
REMARK    3  A    between atoms: _3  and  _6
REMARK    4  A    between atoms: _6  and  _7
REMARK    5  A    between atoms: _7  and  _8
REMARK    6  A    between atoms: _10  and  _12
REMARK    7  A    between atoms: _12  and  _13
REMARK    8  A    between atoms: _12  and  _15
REMARK    9  A    between atoms: _15  and  _16
REMARK   10  A    between atoms: _21  and  _23
REMARK   11  A    between atoms: _23  and  _24
REMARK   12  A    between atoms: _23  and  _26
REMARK   13  A    between atoms: _26  and  _27
REMARK   14  A    between atoms: _29  and  _31
REMARK   15  A    between atoms: _31  and  _32
REMARK   16  A    between atoms: _31  and  _34
REMARK   17  A    between atoms: _37  and  _39
REMARK   18  A    between atoms: _39  and  _40
REMARK   19  A    between atoms: _39  and  _42
REMARK   20  A    between atoms: _42  and  _43
REMARK   21  A    between atoms: _43  and  _44
REMARK   22  A    between atoms: _44  and  _45
REMARK   23  A    between atoms: _54  and  _56
REMARK   24  A    between atoms: _56  and  _57
REMARK   25  A    between atoms: _56  and  _59
REMARK   26  A    between atoms: _59  and  _60
REMARK   27  A    between atoms: _65  and  _67
REMARK   28  A    between atoms: _67  and  _68
REMARK   29  A    between atoms: _71  and  _73
REMARK   30  A    between atoms: _73  and  _74
REMARK   31  A    between atoms: _73  and  _76
REMARK   32  A    between atoms: _76  and  _77
REMARK   33  A    between atoms: _83  and  _85
REMARK   34  A    between atoms: _85  and  _86
REMARK   35  A    between atoms: _88  and  _90
REMARK   36  A    between atoms: _90  and  _91
REMARK   37  A    between atoms: _90  and  _93
REMARK   38  A    between atoms: _93  and  _94
REMARK   39  A    between atoms: _99  and  _101
REMARK   40  A    between atoms: _101  and  _102
REMARK   41  A    between atoms: _101  and  _104
REMARK   42  A    between atoms: _104  and  _105
REMARK   43  A    between atoms: _110  and  _112
REMARK   44  A    between atoms: _112  and  _113
REMARK   45  A    between atoms: _115  and  _117
REMARK   46  A    between atoms: _117  and  _118
REMARK   47  A    between atoms: _117  and  _120
REMARK   48  A    between atoms: _120  and  _121
REMARK   49  A    between atoms: _127  and  _129
REMARK   50  A    between atoms: _129  and  _130
REMARK   51  A    between atoms: _132  and  _134
REMARK   52  A    between atoms: _134  and  _135
REMARK   53  A    between atoms: _134  and  _137
REMARK   54  A    between atoms: _137  and  _138
REMARK   55  A    between atoms: _138  and  _139
REMARK   56  A    between atoms: _141  and  _143
REMARK   57  A    between atoms: _143  and  _144
REMARK   58  A    between atoms: _143  and  _146
REMARK   59  A    between atoms: _146  and  _147
REMARK   60  A    between atoms: _153  and  _155
REMARK   61  A    between atoms: _155  and  _156
REMARK   62  A    between atoms: _155  and  _158
REMARK   63  A    between atoms: _158  and  _159
REMARK   64  A    between atoms: _162  and  _164
REMARK   65  A    between atoms: _164  and  _165
REMARK   66  A    between atoms: _164  and  _167
REMARK   67  A    between atoms: _167  and  _168
REMARK   68  A    between atoms: _171  and  _173
REMARK   69  A    between atoms: _173  and  _174
REMARK   70  A    between atoms: _173  and  _176
REMARK   71  A    between atoms: _176  and  _177
REMARK   72  A    between atoms: _182  and  _183
REMARK   73  A    between atoms: _185  and  _187
REMARK   74  A    between atoms: _187  and  _188
REMARK   75  A    between atoms: _187  and  _190
REMARK   76  A    between atoms: _190  and  _191
REMARK   77  A    between atoms: _193  and  _195
REMARK   78  A    between atoms: _195  and  _196
REMARK   79  A    between atoms: _199  and  _201
REMARK   80  A    between atoms: _201  and  _202
REMARK   81  A    between atoms: _201  and  _204
REMARK   82  A    between atoms: _204  and  _205
REMARK   83  A    between atoms: _208  and  _210
REMARK   84  A    between atoms: _210  and  _211
REMARK   85  A    between atoms: _210  and  _213
REMARK   86  A    between atoms: _213  and  _214
REMARK   87  A    between atoms: _217  and  _219
REMARK   88  A    between atoms: _219  and  _220
REMARK   89  A    between atoms: _219  and  _222
REMARK   90  A    between atoms: _226  and  _227
REMARK   91  A    between atoms: _232  and  _234
REMARK   92  A    between atoms: _234  and  _235
REMARK   93  A    between atoms: _234  and  _237
REMARK   94  A    between atoms: _237  and  _238
REMARK   95  A    between atoms: _238  and  _239
REMARK   96  A    between atoms: _242  and  _244
REMARK   97  A    between atoms: _244  and  _245
REMARK   98  A    between atoms: _244  and  _247
REMARK   99  A    between atoms: _247  and  _248
REMARK  100  A    between atoms: _251  and  _253
REMARK  101  A    between atoms: _253  and  _254
REMARK  102  A    between atoms: _257  and  _259
REMARK  103  A    between atoms: _259  and  _260
REMARK  104  A    between atoms: _259  and  _262
REMARK  105  A    between atoms: _262  and  _263
REMARK  106  A    between atoms: _265  and  _267
REMARK  107  A    between atoms: _267  and  _268
REMARK  108  A    between atoms: _270  and  _272
REMARK  109  A    between atoms: _272  and  _273
REMARK  110  A    between atoms: _275  and  _277
REMARK  111  A    between atoms: _277  and  _278
REMARK  112  A    between atoms: _282  and  _283
REMARK  113  A    between atoms: _288  and  _290
REMARK  114  A    between atoms: _290  and  _291
REMARK  115  A    between atoms: _290  and  _293
REMARK  116  A    between atoms: _293  and  _294
REMARK  117  A    between atoms: _297  and  _299
REMARK  118  A    between atoms: _299  and  _300
REMARK  119  A    between atoms: _299  and  _302
REMARK  120  A    between atoms: _302  and  _303
REMARK  121  A    between atoms: _305  and  _307
REMARK  122  A    between atoms: _307  and  _308
REMARK  123  A    between atoms: _307  and  _310
REMARK  124  A    between atoms: _310  and  _311
REMARK  125  A    between atoms: _311  and  _312
REMARK  126  A    between atoms: _312  and  _313
REMARK  127  A    between atoms: _322  and  _324
REMARK  128  A    between atoms: _324  and  _325
REMARK  129  A    between atoms: _324  and  _327
REMARK  130  A    between atoms: _327  and  _328
REMARK  131  A    between atoms: _328  and  _329
REMARK  132  A    between atoms: _334  and  _336
REMARK  133  A    between atoms: _336  and  _337
REMARK  134  A    between atoms: _339  and  _341
REMARK  135  A    between atoms: _341  and  _342
REMARK  136  A    between atoms: _341  and  _344
REMARK  137  A    between atoms: _344  and  _345
REMARK  138  A    between atoms: _350  and  _351
REMARK  139  A    between atoms: _353  and  _355
REMARK  140  A    between atoms: _355  and  _356
REMARK  141  A    between atoms: _358  and  _360
REMARK  142  A    between atoms: _360  and  _361
REMARK  143  A    between atoms: _360  and  _363
REMARK  144  A    between atoms: _363  and  _364
REMARK  145  A    between atoms: _367  and  _369
REMARK  146  A    between atoms: _369  and  _370
REMARK  147  A    between atoms: _369  and  _372
REMARK  148  A    between atoms: _372  and  _373
REMARK  149  A    between atoms: _376  and  _378
REMARK  150  A    between atoms: _378  and  _379
REMARK  151  A    between atoms: _378  and  _381
REMARK  152  A    between atoms: _381  and  _382
REMARK  153  A    between atoms: _382  and  _383
REMARK  154  A    between atoms: _386  and  _388
REMARK  155  A    between atoms: _388  and  _389
REMARK  156  A    between atoms: _388  and  _391
REMARK  157  A    between atoms: _391  and  _392
REMARK  158  A    between atoms: _395  and  _397
REMARK  159  A    between atoms: _397  and  _398
REMARK  160  A    between atoms: _397  and  _400
REMARK  161  A    between atoms: _400  and  _401
REMARK  162  A    between atoms: _404  and  _406
REMARK  163  A    between atoms: _406  and  _407
REMARK  164  A    between atoms: _406  and  _409
REMARK  165  A    between atoms: _409  and  _410
REMARK  166  A    between atoms: _412  and  _414
REMARK  167  A    between atoms: _414  and  _415
REMARK  168  A    between atoms: _418  and  _420
REMARK  169  A    between atoms: _420  and  _421
REMARK  170  A    between atoms: _420  and  _423
REMARK  171  A    between atoms: _423  and  _424
REMARK  172  A    between atoms: _427  and  _429
REMARK  173  A    between atoms: _429  and  _430
REMARK  174  A    between atoms: _429  and  _432
REMARK  175  A    between atoms: _432  and  _433
REMARK  176  A    between atoms: _436  and  _438
REMARK  177  A    between atoms: _438  and  _439
REMARK  178  A    between atoms: _438  and  _441
REMARK  179  A    between atoms: _441  and  _442
REMARK  180  A    between atoms: _445  and  _447
REMARK  181  A    between atoms: _447  and  _448
REMARK  182  A    between atoms: _447  and  _450
REMARK  183  A    between atoms: _450  and  _451
REMARK  184  A    between atoms: _454  and  _456
REMARK  185  A    between atoms: _456  and  _457
REMARK  186  A    between atoms: _459  and  _461
REMARK  187  A    between atoms: _461  and  _462
REMARK  188  A    between atoms: _465  and  _467
REMARK  189  A    between atoms: _467  and  _468
REMARK  190  A    between atoms: _467  and  _470
REMARK  191  A    between atoms: _473  and  _475
REMARK  192  A    between atoms: _475  and  _476
REMARK  193  A    between atoms: _478  and  _480
REMARK  194  A    between atoms: _480  and  _481
REMARK  195  A    between atoms: _480  and  _483
REMARK  196  A    between atoms: _486  and  _488
REMARK  197  A    between atoms: _488  and  _489
REMARK  198  A    between atoms: _488  and  _491
REMARK  199  A    between atoms: _491  and  _492
REMARK  200  A    between atoms: _495  and  _497
REMARK  201  A    between atoms: _497  and  _498
REMARK  202  A    between atoms: _497  and  _500
REMARK  203  A    between atoms: _500  and  _501
REMARK  204  A    between atoms: _501  and  _502
REMARK  205  A    between atoms: _504  and  _506
REMARK  206  A    between atoms: _506  and  _507
REMARK  207  A    between atoms: _506  and  _509
REMARK  208  A    between atoms: _509  and  _510
REMARK  209  A    between atoms: _515  and  _516
REMARK  210  A    between atoms: _518  and  _520
REMARK  211  A    between atoms: _520  and  _521
REMARK  212  A    between atoms: _520  and  _523
REMARK  213  A    between atoms: _523  and  _524
REMARK  214  A    between atoms: _527  and  _529
REMARK  215  A    between atoms: _529  and  _530
REMARK  216  A    between atoms: _529  and  _532
REMARK  217  A    between atoms: _532  and  _533
REMARK  218  A    between atoms: _538  and  _540
REMARK  219  A    between atoms: _540  and  _541
REMARK  220  A    between atoms: _540  and  _543
REMARK  221  A    between atoms: _543  and  _544
REMARK  222  A    between atoms: _546  and  _548
REMARK  223  A    between atoms: _548  and  _549
REMARK  224  A    between atoms: _551  and  _553
REMARK  225  A    between atoms: _553  and  _554
REMARK  226  A    between atoms: _553  and  _556
REMARK  227  A    between atoms: _556  and  _557
REMARK  228  A    between atoms: _560  and  _562
REMARK  229  A    between atoms: _562  and  _563
REMARK  230  A    between atoms: _562  and  _565
REMARK  231  A    between atoms: _565  and  _566
REMARK  232  A    between atoms: _569  and  _571
REMARK  233  A    between atoms: _571  and  _572
REMARK  234  A    between atoms: _571  and  _574
REMARK  235  A    between atoms: _574  and  _575
REMARK  236  A    between atoms: _581  and  _583
REMARK  237  A    between atoms: _583  and  _584
REMARK  238  A    between atoms: _583  and  _586
REMARK  239  A    between atoms: _586  and  _587
REMARK  240  A    between atoms: _590  and  _592
REMARK  241  A    between atoms: _592  and  _593
REMARK  242  A    between atoms: _592  and  _595
REMARK  243  A    between atoms: _598  and  _600
REMARK  244  A    between atoms: _600  and  _601
REMARK  245  A    between atoms: _600  and  _603
REMARK  246  A    between atoms: _603  and  _604
REMARK  247  A    between atoms: _607  and  _609
REMARK  248  A    between atoms: _609  and  _610
REMARK  249  A    between atoms: _609  and  _612
REMARK  250  A    between atoms: _612  and  _613
REMARK  251  A    between atoms: _613  and  _614
REMARK  252  A    between atoms: _614  and  _615
REMARK  253  A    between atoms: _624  and  _626
REMARK  254  A    between atoms: _626  and  _627
REMARK  255  A    between atoms: _626  and  _629
REMARK  256  A    between atoms: _629  and  _630
REMARK                            x       y       z     vdW  Elec       q    Type
REMARK                         _______ _______ _______ _____ _____    ______ ____
ROOT
ATOM      1  CA  HIS A   1     -33.329  -6.219  -3.752  0.00  0.00    +0.151 C 
ENDROOT
BRANCH   1   2
ATOM      2  C   HIS A   1     -31.877  -6.653  -3.864  0.00  0.00    +0.239 C 
ATOM      3  N   ALA A   2     -31.042  -6.174  -2.954  0.00  0.00    -0.298 N 
ATOM      4  H   ALA A   2     -31.416  -5.635  -2.147  0.00  0.00    +0.150 HD
ATOM      5  O   HIS A   1     -31.513  -7.394  -4.772  0.00  0.00    -0.274 OA
BRANCH   3   6
ATOM      6  CA  ALA A   2     -29.605  -6.392  -3.069  0.00  0.00    +0.137 C 
ATOM      7  CB  ALA A   2     -28.876  -5.751  -1.862  0.00  0.00    +0.030 C 
BRANCH   6   8
ATOM      8  C   ALA A   2     -29.253  -7.863  -3.169  0.00  0.00    +0.227 C 
ATOM      9  O   ALA A   2     -28.340  -8.239  -3.885  0.00  0.00    -0.286 OA
ENDBRANCH   6   8
ENDBRANCH   3   6
ENDBRANCH   1   2
BRANCH   1  10
ATOM     10  N   HIS A   1     -33.842  -6.295  -2.379  0.00  0.00    -0.238 NA
ATOM     11  H   HIS A   1     -34.239  -5.444  -1.933  0.00  0.00    +0.142 HD
ENDBRANCH   1  10
BRANCH   1  12
ATOM     12  CB  HIS A   1     -33.424  -4.806  -4.282  0.00  0.00    +0.074 C 
BRANCH  12  13
ATOM     13  CG  HIS A   1     -34.815  -4.264  -4.317  0.00  0.00    +0.082 A 
ATOM     14  ND1 HIS A   1     -35.086  -2.917  -4.312  0.00  0.00    -0.227 NA
ATOM     15  CE1 HIS A   1     -36.393  -2.734  -4.335  0.00  0.00    +0.199 A 
ATOM     16  NE2 HIS A   1     -36.979  -3.917  -4.377  0.00  0.00    -0.221 NA
ATOM     17  CD2 HIS A   1     -36.015  -4.891  -4.373  0.00  0.00    +0.115 A 
ENDBRANCH  12  13
ENDBRANCH   1  12
TORSDOF 6
REMARK  Name = ../refined-set-2016/3ies/3ies_pocket.pdb
REMARK  256 active torsions:
REMARK  status: ('A' for Active; 'I' for Inactive)
REMARK    1  A    between atoms: _1  and  _3
REMARK    2  A    between atoms: _3  and  _4
REMARK    3  A    between atoms: _3  and  _6
REMARK    4  A    between atoms: _6  and  _7
REMARK    5  A    between atoms: _7  and  _8
REMARK    6  A    between atoms: _10  and  _12
REMARK    7  A    between atoms: _12  and  _13
REMARK    8  A    between atoms: _12  and  _15
REMARK    9  A    between atoms: _15  and  _16
REMARK   10  A    between atoms: _21  and  _23
REMARK   11  A    between atoms: _23  and  _24
REMARK   12  A    between atoms: _23  and  _26
REMARK   13  A    between atoms: _26  and  _27
REMARK   14  A    between atoms: _29  and  _31
REMARK   15  A    between atoms: _31  and  _32
REMARK   16  A    between atoms: _31  and  _34
REMARK   17  A    between atoms: _37  and  _39
REMARK   18  A    between atoms: _39  and  _40
REMARK   19  A    between atoms: _39  and  _42
REMARK   20  A    between atoms: _42  and  _43
REMARK   21  A    between atoms: _43  and  _44
REMARK   22  A    between atoms: _44  and  _45
REMARK   23  A    between atoms: _54  and  _56
REMARK   24  A    between atoms: _56  and  _57
REMARK   25  A    between atoms: _56  and  _59
REMARK   26  A    between atoms: _59  and  _60
REMARK   27  A    between atoms: _65  and  _67
REMARK   28  A    between atoms: _67  and  _68
REMARK   29  A    between atoms: _71  and  _73
REMARK   30  A    between atoms: _73  and  _74
REMARK   31  A    between atoms: _73  and  _76
REMARK   32  A    between atoms: _76  and  _77
REMARK   33  A    between atoms: _83  and  _85
REMARK   34  A    between atoms: _85  and  _86
REMARK   35  A    between atoms: _88  and  _90
REMARK   36  A    between atoms: _90  and  _91
REMARK   37  A    between atoms: _90  and  _93
REMARK   38  A    between atoms: _93  and  _94
REMARK   39  A    between atoms: _99  and  _101
REMARK   40  A    between atoms: _101  and  _102
REMARK   41  A    between atoms: _101  and  _104
REMARK   42  A    between atoms: _104  and  _105
REMARK   43  A    between atoms: _110  and  _112
REMARK   44  A    between atoms: _112  and  _113
REMARK   45  A    between atoms: _115  and  _117
REMARK   46  A    between atoms: _117  and  _118
REMARK   47  A    between atoms: _117  and  _120
REMARK   48  A    between atoms: _120  and  _121
REMARK   49  A    between atoms: _127  and  _129
REMARK   50  A    between atoms: _129  and  _130
REMARK   51  A    between atoms: _132  and  _134
REMARK   52  A    between atoms: _134  and  _135
REMARK   53  A    between atoms: _134  and  _137
REMARK   54  A    between atoms: _137  and  _138
REMARK   55  A    between atoms: _138  and  _139
REMARK   56  A    between atoms: _141  and  _143
REMARK   57  A    between atoms: _143  and  _144
REMARK   58  A    between atoms: _143  and  _146
REMARK   59  A    between atoms: _146  and  _147
REMARK   60  A    between atoms: _153  and  _155
REMARK   61  A    between atoms: _155  and  _156
REMARK   62  A    between atoms: _155  and  _158
REMARK   63  A    between atoms: _158  and  _159
REMARK   64  A    between atoms: _162  and  _164
REMARK   65  A    between atoms: _164  and  _165
REMARK   66  A    between atoms: _164  and  _167
REMARK   67  A    between atoms: _167  and  _168
REMARK   68  A    between atoms: _171  and  _173
REMARK   69  A    between atoms: _173  and  _174
REMARK   70  A    between atoms: _173  and  _176
REMARK   71  A    between atoms: _176  and  _177
REMARK   72  A    between atoms: _182  and  _183
REMARK   73  A    between atoms: _185  and  _187
REMARK   74  A    between atoms: _187  and  _188
REMARK   75  A    between atoms: _187  and  _190
REMARK   76  A    between atoms: _190  and  _191
REMARK   77  A    between atoms: _193  and  _195
REMARK   78  A    between atoms: _195  and  _196
REMARK   79  A    between atoms: _199  and  _201
REMARK   80  A    between atoms: _201  and  _202
REMARK   81  A    between atoms: _201  and  _204
REMARK   82  A    between atoms: _204  and  _205
REMARK   83  A    between atoms: _208  and  _210
REMARK   84  A    between atoms: _210  and  _211
REMARK   85  A    between atoms: _210  and  _213
REMARK   86  A    between atoms: _213  and  _214
REMARK   87  A    between atoms: _217  and  _219
REMARK   88  A    between atoms: _219  and  _220
REMARK   89  A    between atoms: _219  and  _222
REMARK   90  A    between atoms: _226  and  _227
REMARK   91  A    between atoms: _232  and  _234
REMARK   92  A    between atoms: _234  and  _235
REMARK   93  A    between atoms: _234  and  _237
REMARK   94  A    between atoms: _237  and  _238
REMARK   95  A    between atoms: _238  and  _239
REMARK   96  A    between atoms: _242  and  _244
REMARK   97  A    between atoms: _244  and  _245
REMARK   98  A    between atoms: _244  and  _247
REMARK   99  A    between atoms: _247  and  _248
REMARK  100  A    between atoms: _251  and  _253
REMARK  101  A    between atoms: _253  and  _254
REMARK  102  A    between atoms: _257  and  _259
REMARK  103  A    between atoms: _259  and  _260
REMARK  104  A    between atoms: _259  and  _262
REMARK  105  A    between atoms: _262  and  _263
REMARK  106  A    between atoms: _265  and  _267
REMARK  107  A    between atoms: _267  and  _268
REMARK  108  A    between atoms: _270  and  _272
REMARK  109  A    between atoms: _272  and  _273
REMARK  110  A    between atoms: _275  and  _277
REMARK  111  A    between atoms: _277  and  _278
REMARK  112  A    between atoms: _282  and  _283
REMARK  113  A    between atoms: _288  and  _290
REMARK  114  A    between atoms: _290  and  _291
REMARK  115  A    between atoms: _290  and  _293
REMARK  116  A    between atoms: _293  and  _294
REMARK  117  A    between atoms: _297  and  _299
REMARK  118  A    between atoms: _299  and  _300
REMARK  119  A    between atoms: _299  and  _302
REMARK  120  A    between atoms: _302  and  _303
REMARK  121  A    between atoms: _305  and  _307
REMARK  122  A    between atoms: _307  and  _308
REMARK  123  A    between atoms: _307  and  _310
REMARK  124  A    between atoms: _310  and  _311
REMARK  125  A    between atoms: _311  and  _312
REMARK  126  A    between atoms: _312  and  _313
REMARK  127  A    between atoms: _322  and  _324
REMARK  128  A    between atoms: _324  and  _325
REMARK  129  A    between atoms: _324  and  _327
REMARK  130  A    between atoms: _327  and  _328
REMARK  131  A    between atoms: _328  and  _329
REMARK  132  A    between atoms: _334  and  _336
REMARK  133  A    between atoms: _336  and  _337
REMARK  134  A    between atoms: _339  and  _341
REMARK  135  A    between atoms: _341  and  _342
REMARK  136  A    between atoms: _341  and  _344
REMARK  137  A    between atoms: _344  and  _345
REMARK  138  A    between atoms: _350  and  _351
REMARK  139  A    between atoms: _353  and  _355
REMARK  140  A    between atoms: _355  and  _356
REMARK  141  A    between atoms: _358  and  _360
REMARK  142  A    between atoms: _360  and  _361
REMARK  143  A    between atoms: _360  and  _363
REMARK  144  A    between atoms: _363  and  _364
REMARK  145  A    between atoms: _367  and  _369
REMARK  146  A    between atoms: _369  and  _370
REMARK  147  A    between atoms: _369  and  _372
REMARK  148  A    between atoms: _372  and  _373
REMARK  149  A    between atoms: _376  and  _378
REMARK  150  A    between atoms: _378  and  _379
REMARK  151  A    between atoms: _378  and  _381
REMARK  152  A    between atoms: _381  and  _382
REMARK  153  A    between atoms: _382  and  _383
REMARK  154  A    between atoms: _386  and  _388
REMARK  155  A    between atoms: _388  and  _389
REMARK  156  A    between atoms: _388  and  _391
REMARK  157  A    between atoms: _391  and  _392
REMARK  158  A    between atoms: _395  and  _397
REMARK  159  A    between atoms: _397  and  _398
REMARK  160  A    between atoms: _397  and  _400
REMARK  161  A    between atoms: _400  and  _401
REMARK  162  A    between atoms: _404  and  _406
REMARK  163  A    between atoms: _406  and  _407
REMARK  164  A    between atoms: _406  and  _409
REMARK  165  A    between atoms: _409  and  _410
REMARK  166  A    between atoms: _412  and  _414
REMARK  167  A    between atoms: _414  and  _415
REMARK  168  A    between atoms: _418  and  _420
REMARK  169  A    between atoms: _420  and  _421
REMARK  170  A    between atoms: _420  and  _423
REMARK  171  A    between atoms: _423  and  _424
REMARK  172  A    between atoms: _427  and  _429
REMARK  173  A    between atoms: _429  and  _430
REMARK  174  A    between atoms: _429  and  _432
REMARK  175  A    between atoms: _432  and  _433
REMARK  176  A    between atoms: _436  and  _438
REMARK  177  A    between atoms: _438  and  _439
REMARK  178  A    between atoms: _438  and  _441
REMARK  179  A    between atoms: _441  and  _442
REMARK  180  A    between atoms: _445  and  _447
REMARK  181  A    between atoms: _447  and  _448
REMARK  182  A    between atoms: _447  and  _450
REMARK  183  A    between atoms: _450  and  _451
REMARK  184  A    between atoms: _454  and  _456
REMARK  185  A    between atoms: _456  and  _457
REMARK  186  A    between atoms: _459  and  _461
REMARK  187  A    between atoms: _461  and  _462
REMARK  188  A    between atoms: _465  and  _467
REMARK  189  A    between atoms: _467  and  _468
REMARK  190  A    between atoms: _467  and  _470
REMARK  191  A    between atoms: _473  and  _475
REMARK  192  A    between atoms: _475  and  _476
REMARK  193  A    between atoms: _478  and  _480
REMARK  194  A    between atoms: _480  and  _481
REMARK  195  A    between atoms: _480  and  _483
REMARK  196  A    between atoms: _486  and  _488
REMARK  197  A    between atoms: _488  and  _489
REMARK  198  A    between atoms: _488  and  _491
REMARK  199  A    between atoms: _491  and  _492
REMARK  200  A    between atoms: _495  and  _497
REMARK  201  A    between atoms: _497  and  _498
REMARK  202  A    between atoms: _497  and  _500
REMARK  203  A    between atoms: _500  and  _501
REMARK  204  A    between atoms: _501  and  _502
REMARK  205  A    between atoms: _504  and  _506
REMARK  206  A    between atoms: _506  and  _507
REMARK  207  A    between atoms: _506  and  _509
REMARK  208  A    between atoms: _509  and  _510
REMARK  209  A    between atoms: _515  and  _516
REMARK  210  A    between atoms: _518  and  _520
REMARK  211  A    between atoms: _520  and  _521
REMARK  212  A    between atoms: _520  and  _523
REMARK  213  A    between atoms: _523  and  _524
REMARK  214  A    between atoms: _527  and  _529
REMARK  215  A    between atoms: _529  and  _530
REMARK  216  A    between atoms: _529  and  _532
REMARK  217  A    between atoms: _532  and  _533
REMARK  218  A    between atoms: _538  and  _540
REMARK  219  A    between atoms: _540  and  _541
REMARK  220  A    between atoms: _540  and  _543
REMARK  221  A    between atoms: _543  and  _544
REMARK  222  A    between atoms: _546  and  _548
REMARK  223  A    between atoms: _548  and  _549
REMARK  224  A    between atoms: _551  and  _553
REMARK  225  A    between atoms: _553  and  _554
REMARK  226  A    between atoms: _553  and  _556
REMARK  227  A    between atoms: _556  and  _557
REMARK  228  A    between atoms: _560  and  _562
REMARK  229  A    between atoms: _562  and  _563
REMARK  230  A    between atoms: _562  and  _565
REMARK  231  A    between atoms: _565  and  _566
REMARK  232  A    between atoms: _569  and  _571
REMARK  233  A    between atoms: _571  and  _572
REMARK  234  A    between atoms: _571  and  _574
REMARK  235  A    between atoms: _574  and  _575
REMARK  236  A    between atoms: _581  and  _583
REMARK  237  A    between atoms: _583  and  _584
REMARK  238  A    between atoms: _583  and  _586
REMARK  239  A    between atoms: _586  and  _587
REMARK  240  A    between atoms: _590  and  _592
REMARK  241  A    between atoms: _592  and  _593
REMARK  242  A    between atoms: _592  and  _595
REMARK  243  A    between atoms: _598  and  _600
REMARK  244  A    between atoms: _600  and  _601
REMARK  245  A    between atoms: _600  and  _603
REMARK  246  A    between atoms: _603  and  _604
REMARK  247  A    between atoms: _607  and  _609
REMARK  248  A    between atoms: _609  and  _610
REMARK  249  A    between atoms: _609  and  _612
REMARK  250  A    between atoms: _612  and  _613
REMARK  251  A    between atoms: _613  and  _614
REMARK  252  A    between atoms: _614  and  _615
REMARK  253  A    between atoms: _624  and  _626
REMARK  254  A    between atoms: _626  and  _627
REMARK  255  A    between atoms: _626  and  _629
REMARK  256  A    between atoms: _629  and  _630
REMARK                            x       y       z     vdW  Elec       q    Type
REMARK                         _______ _______ _______ _____ _____    ______ ____
ROOT
ATOM      1  C   PHE A   1     -31.419  -7.230  -8.406  0.00  0.00    +0.239 C 
ATOM      2  N   GLY A   2     -30.618  -8.166  -7.929  0.00  0.00    -0.296 N 
ATOM      3  H   GLY A   2     -30.822  -9.158  -8.166  0.00  0.00    +0.150 HD
ATOM      4  O   PHE A   1     -31.227  -6.026  -8.262  0.00  0.00    -0.274 OA
ENDROOT
BRANCH   1   5
ATOM      5  CA  PHE A   1     -32.633  -7.727  -9.192  0.00  0.00    +0.149 C 
BRANCH   5   6
ATOM      6  N   PHE A   1     -32.756  -9.184  -9.244  0.00  0.00    -0.238 NA
ATOM      7  H   PHE A   1     -33.107  -9.696  -8.409  0.00  0.00    +0.142 HD
ENDBRANCH   5   6
BRANCH   5   8
ATOM      8  CB  PHE A   1     -33.898  -7.115  -8.618  0.00  0.00    +0.053 C 
BRANCH   8   9
ATOM      9  CG  PHE A   1     -35.068  -7.220  -9.554  0.00  0.00    -0.020 A 
ATOM     10  CD2 PHE A   1     -35.968  -8.253  -9.433  0.00  0.00    -0.004 A 
ATOM     11  CE2 PHE A   1     -37.033  -8.373 -10.320  0.00  0.00    -0.000 A 
ATOM     12  CZ  PHE A   1     -37.174  -7.488 -11.339  0.00  0.00    -0.000 A 
ATOM     13  CE1 PHE A   1     -36.262  -6.441 -11.479  0.00  0.00    -0.000 A 
ATOM     14  CD1 PHE A   1     -35.217  -6.320 -10.585  0.00  0.00    -0.004 A 
ENDBRANCH   8   9
ENDBRANCH   5   8
ENDBRANCH   1   5
BRANCH   2  15
ATOM     15  CA  GLY A   2     -29.450  -7.876  -7.078  0.00  0.00    +0.176 C 
BRANCH  15  16
ATOM     16  C   GLY A   2     -28.318  -8.804  -7.470  0.00  0.00    +0.243 C 
ATOM     17  N   ASN A   3     -27.588  -9.299  -6.483  0.00  0.00    -0.298 N 
ATOM     18  H   ASN A   3     -27.796  -9.000  -5.509  0.00  0.00    +0.150 HD
ATOM     19  O   GLY A   2     -28.115  -9.075  -8.646  0.00  0.00    -0.273 OA
BRANCH  17  20
ATOM     20  CA  ASN A   3     -26.509 -10.243  -6.708  0.00  0.00    +0.146 C 
BRANCH  20  21
ATOM     21  C   ASN A   3     -26.772 -11.440  -5.798  0.00  0.00    +0.227 C 
ATOM     22  O   ASN A   3     -27.012 -11.305  -4.620  0.00  0.00    -0.286 OA
ENDBRANCH  20  21
BRANCH  20  23
ATOM     23  CB  ASN A   3     -25.135  -9.631  -6.364  0.00  0.00    +0.112 C 
BRANCH  23  24
ATOM     24  CG  ASN A   3     -24.782  -8.423  -7.214  0.00  0.00    +0.222 C 
ATOM     25  OD1 ASN A   3     -24.735  -7.306  -6.717  0.00  0.00    -0.275 OA
ATOM     26  ND2 ASN A   3     -24.520  -8.644  -8.506  0.00  0.00    -0.329 N 
ATOM     27 HD21 ASN A   3     -24.571  -9.609  -8.889  0.00  0.00    +0.145 HD
ATOM     28 HD22 ASN A   3     -24.265  -7.850  -9.128  0.00  0.00    +0.145 HD
ENDBRANCH  23  24
ENDBRANCH  20  23
ENDBRANCH  17  20
ENDBRANCH  15  16
ENDBRANCH   2  15
TORSDOF 10
REMARK  Name = ../refined-set-2016/3ies/3ies_pocket.pdb
REMARK  256 active torsions:
REMARK  status: ('A' for Active; 'I' for Inactive)
REMARK    1  A    between atoms: _1  and  _3
REMARK    2  A    between atoms: _3  and  _4
REMARK    3  A    between atoms: _3  and  _6
REMARK    4  A    between atoms: _6  and  _7
REMARK    5  A    between atoms: _7  and  _8
REMARK    6  A    between atoms: _10  and  _12
REMARK    7  A    between atoms: _12  and  _13
REMARK    8  A    between atoms: _12  and  _15
REMARK    9  A    between atoms: _15  and  _16
REMARK   10  A    between atoms: _21  and  _23
REMARK   11  A    between atoms: _23  and  _24
REMARK   12  A    between atoms: _23  and  _26
REMARK   13  A    between atoms: _26  and  _27
REMARK   14  A    between atoms: _29  and  _31
REMARK   15  A    between atoms: _31  and  _32
REMARK   16  A    between atoms: _31  and  _34
REMARK   17  A    between atoms: _37  and  _39
REMARK   18  A    between atoms: _39  and  _40
REMARK   19  A    between atoms: _39  and  _42
REMARK   20  A    between atoms: _42  and  _43
REMARK   21  A    between atoms: _43  and  _44
REMARK   22  A    between atoms: _44  and  _45
REMARK   23  A    between atoms: _54  and  _56
REMARK   24  A    between atoms: _56  and  _57
REMARK   25  A    between atoms: _56  and  _59
REMARK   26  A    between atoms: _59  and  _60
REMARK   27  A    between atoms: _65  and  _67
REMARK   28  A    between atoms: _67  and  _68
REMARK   29  A    between atoms: _71  and  _73
REMARK   30  A    between atoms: _73  and  _74
REMARK   31  A    between atoms: _73  and  _76
REMARK   32  A    between atoms: _76  and  _77
REMARK   33  A    between atoms: _83  and  _85
REMARK   34  A    between atoms: _85  and  _86
REMARK   35  A    between atoms: _88  and  _90
REMARK   36  A    between atoms: _90  and  _91
REMARK   37  A    between atoms: _90  and  _93
REMARK   38  A    between atoms: _93  and  _94
REMARK   39  A    between atoms: _99  and  _101
REMARK   40  A    between atoms: _101  and  _102
REMARK   41  A    between atoms: _101  and  _104
REMARK   42  A    between atoms: _104  and  _105
REMARK   43  A    between atoms: _110  and  _112
REMARK   44  A    between atoms: _112  and  _113
REMARK   45  A    between atoms: _115  and  _117
REMARK   46  A    between atoms: _117  and  _118
REMARK   47  A    between atoms: _117  and  _120
REMARK   48  A    between atoms: _120  and  _121
REMARK   49  A    between atoms: _127  and  _129
REMARK   50  A    between atoms: _129  and  _130
REMARK   51  A    between atoms: _132  and  _134
REMARK   52  A    between atoms: _134  and  _135
REMARK   53  A    between atoms: _134  and  _137
REMARK   54  A    between atoms: _137  and  _138
REMARK   55  A    between atoms: _138  and  _139
REMARK   56  A    between atoms: _141  and  _143
REMARK   57  A    between atoms: _143  and  _144
REMARK   58  A    between atoms: _143  and  _146
REMARK   59  A    between atoms: _146  and  _147
REMARK   60  A    between atoms: _153  and  _155
REMARK   61  A    between atoms: _155  and  _156
REMARK   62  A    between atoms: _155  and  _158
REMARK   63  A    between atoms: _158  and  _159
REMARK   64  A    between atoms: _162  and  _164
REMARK   65  A    between atoms: _164  and  _165
REMARK   66  A    between atoms: _164  and  _167
REMARK   67  A    between atoms: _167  and  _168
REMARK   68  A    between atoms: _171  and  _173
REMARK   69  A    between atoms: _173  and  _174
REMARK   70  A    between atoms: _173  and  _176
REMARK   71  A    between atoms: _176  and  _177
REMARK   72  A    between atoms: _182  and  _183
REMARK   73  A    between atoms: _185  and  _187
REMARK   74  A    between atoms: _187  and  _188
REMARK   75  A    between atoms: _187  and  _190
REMARK   76  A    between atoms: _190  and  _191
REMARK   77  A    between atoms: _193  and  _195
REMARK   78  A    between atoms: _195  and  _196
REMARK   79  A    between atoms: _199  and  _201
REMARK   80  A    between atoms: _201  and  _202
REMARK   81  A    between atoms: _201  and  _204
REMARK   82  A    between atoms: _204  and  _205
REMARK   83  A    between atoms: _208  and  _210
REMARK   84  A    between atoms: _210  and  _211
REMARK   85  A    between atoms: _210  and  _213
REMARK   86  A    between atoms: _213  and  _214
REMARK   87  A    between atoms: _217  and  _219
REMARK   88  A    between atoms: _219  and  _220
REMARK   89  A    between atoms: _219  and  _222
REMARK   90  A    between atoms: _226  and  _227
REMARK   91  A    between atoms: _232  and  _234
REMARK   92  A    between atoms: _234  and  _235
REMARK   93  A    between atoms: _234  and  _237
REMARK   94  A    between atoms: _237  and  _238
REMARK   95  A    between atoms: _238  and  _239
REMARK   96  A    between atoms: _242  and  _244
REMARK   97  A    between atoms: _244  and  _245
REMARK   98  A    between atoms: _244  and  _247
REMARK   99  A    between atoms: _247  and  _248
REMARK  100  A    between atoms: _251  and  _253
REMARK  101  A    between atoms: _253  and  _254
REMARK  102  A    between atoms: _257  and  _259
REMARK  103  A    between atoms: _259  and  _260
REMARK  104  A    between atoms: _259  and  _262
REMARK  105  A    between atoms: _262  and  _263
REMARK  106  A    between atoms: _265  and  _267
REMARK  107  A    between atoms: _267  and  _268
REMARK  108  A    between atoms: _270  and  _272
REMARK  109  A    between atoms: _272  and  _273
REMARK  110  A    between atoms: _275  and  _277
REMARK  111  A    between atoms: _277  and  _278
REMARK  112  A    between atoms: _282  and  _283
REMARK  113  A    between atoms: _288  and  _290
REMARK  114  A    between atoms: _290  and  _291
REMARK  115  A    between atoms: _290  and  _293
REMARK  116  A    between atoms: _293  and  _294
REMARK  117  A    between atoms: _297  and  _299
REMARK  118  A    between atoms: _299  and  _300
REMARK  119  A    between atoms: _299  and  _302
REMARK  120  A    between atoms: _302  and  _303
REMARK  121  A    between atoms: _305  and  _307
REMARK  122  A    between atoms: _307  and  _308
REMARK  123  A    between atoms: _307  and  _310
REMARK  124  A    between atoms: _310  and  _311
REMARK  125  A    between atoms: _311  and  _312
REMARK  126  A    between atoms: _312  and  _313
REMARK  127  A    between atoms: _322  and  _324
REMARK  128  A    between atoms: _324  and  _325
REMARK  129  A    between atoms: _324  and  _327
REMARK  130  A    between atoms: _327  and  _328
REMARK  131  A    between atoms: _328  and  _329
REMARK  132  A    between atoms: _334  and  _336
REMARK  133  A    between atoms: _336  and  _337
REMARK  134  A    between atoms: _339  and  _341
REMARK  135  A    between atoms: _341  and  _342
REMARK  136  A    between atoms: _341  and  _344
REMARK  137  A    between atoms: _344  and  _345
REMARK  138  A    between atoms: _350  and  _351
REMARK  139  A    between atoms: _353  and  _355
REMARK  140  A    between atoms: _355  and  _356
REMARK  141  A    between atoms: _358  and  _360
REMARK  142  A    between atoms: _360  and  _361
REMARK  143  A    between atoms: _360  and  _363
REMARK  144  A    between atoms: _363  and  _364
REMARK  145  A    between atoms: _367  and  _369
REMARK  146  A    between atoms: _369  and  _370
REMARK  147  A    between atoms: _369  and  _372
REMARK  148  A    between atoms: _372  and  _373
REMARK  149  A    between atoms: _376  and  _378
REMARK  150  A    between atoms: _378  and  _379
REMARK  151  A    between atoms: _378  and  _381
REMARK  152  A    between atoms: _381  and  _382
REMARK  153  A    between atoms: _382  and  _383
REMARK  154  A    between atoms: _386  and  _388
REMARK  155  A    between atoms: _388  and  _389
REMARK  156  A    between atoms: _388  and  _391
REMARK  157  A    between atoms: _391  and  _392
REMARK  158  A    between atoms: _395  and  _397
REMARK  159  A    between atoms: _397  and  _398
REMARK  160  A    between atoms: _397  and  _400
REMARK  161  A    between atoms: _400  and  _401
REMARK  162  A    between atoms: _404  and  _406
REMARK  163  A    between atoms: _406  and  _407
REMARK  164  A    between atoms: _406  and  _409
REMARK  165  A    between atoms: _409  and  _410
REMARK  166  A    between atoms: _412  and  _414
REMARK  167  A    between atoms: _414  and  _415
REMARK  168  A    between atoms: _418  and  _420
REMARK  169  A    between atoms: _420  and  _421
REMARK  170  A    between atoms: _420  and  _423
REMARK  171  A    between atoms: _423  and  _424
REMARK  172  A    between atoms: _427  and  _429
REMARK  173  A    between atoms: _429  and  _430
REMARK  174  A    between atoms: _429  and  _432
REMARK  175  A    between atoms: _432  and  _433
REMARK  176  A    between atoms: _436  and  _438
REMARK  177  A    between atoms: _438  and  _439
REMARK  178  A    between atoms: _438  and  _441
REMARK  179  A    between atoms: _441  and  _442
REMARK  180  A    between atoms: _445  and  _447
REMARK  181  A    between atoms: _447  and  _448
REMARK  182  A    between atoms: _447  and  _450
REMARK  183  A    between atoms: _450  and  _451
REMARK  184  A    between atoms: _454  and  _456
REMARK  185  A    between atoms: _456  and  _457
REMARK  186  A    between atoms: _459  and  _461
REMARK  187  A    between atoms: _461  and  _462
REMARK  188  A    between atoms: _465  and  _467
REMARK  189  A    between atoms: _467  and  _468
REMARK  190  A    between atoms: _467  and  _470
REMARK  191  A    between atoms: _473  and  _475
REMARK  192  A    between atoms: _475  and  _476
REMARK  193  A    between atoms: _478  and  _480
REMARK  194  A    between atoms: _480  and  _481
REMARK  195  A    between atoms: _480  and  _483
REMARK  196  A    between atoms: _486  and  _488
REMARK  197  A    between atoms: _488  and  _489
REMARK  198  A    between atoms: _488  and  _491
REMARK  199  A    between atoms: _491  and  _492
REMARK  200  A    between atoms: _495  and  _497
REMARK  201  A    between atoms: _497  and  _498
REMARK  202  A    between atoms: _497  and  _500
REMARK  203  A    between atoms: _500  and  _501
REMARK  204  A    between atoms: _501  and  _502
REMARK  205  A    between atoms: _504  and  _506
REMARK  206  A    between atoms: _506  and  _507
REMARK  207  A    between atoms: _506  and  _509
REMARK  208  A    between atoms: _509  and  _510
REMARK  209  A    between atoms: _515  and  _516
REMARK  210  A    between atoms: _518  and  _520
REMARK  211  A    between atoms: _520  and  _521
REMARK  212  A    between atoms: _520  and  _523
REMARK  213  A    between atoms: _523  and  _524
REMARK  214  A    between atoms: _527  and  _529
REMARK  215  A    between atoms: _529  and  _530
REMARK  216  A    between atoms: _529  and  _532
REMARK  217  A    between atoms: _532  and  _533
REMARK  218  A    between atoms: _538  and  _540
REMARK  219  A    between atoms: _540  and  _541
REMARK  220  A    between atoms: _540  and  _543
REMARK  221  A    between atoms: _543  and  _544
REMARK  222  A    between atoms: _546  and  _548
REMARK  223  A    between atoms: _548  and  _549
REMARK  224  A    between atoms: _551  and  _553
REMARK  225  A    between atoms: _553  and  _554
REMARK  226  A    between atoms: _553  and  _556
REMARK  227  A    between atoms: _556  and  _557
REMARK  228  A    between atoms: _560  and  _562
REMARK  229  A    between atoms: _562  and  _563
REMARK  230  A    between atoms: _562  and  _565
REMARK  231  A    between atoms: _565  and  _566
REMARK  232  A    between atoms: _569  and  _571
REMARK  233  A    between atoms: _571  and  _572
REMARK  234  A    between atoms: _571  and  _574
REMARK  235  A    between atoms: _574  and  _575
REMARK  236  A    between atoms: _581  and  _583
REMARK  237  A    between atoms: _583  and  _584
REMARK  238  A    between atoms: _583  and  _586
REMARK  239  A    between atoms: _586  and  _587
REMARK  240  A    between atoms: _590  and  _592
REMARK  241  A    between atoms: _592  and  _593
REMARK  242  A    between atoms: _592  and  _595
REMARK  243  A    between atoms: _598  and  _600
REMARK  244  A    between atoms: _600  and  _601
REMARK  245  A    between atoms: _600  and  _603
REMARK  246  A    between atoms: _603  and  _604
REMARK  247  A    between atoms: _607  and  _609
REMARK  248  A    between atoms: _609  and  _610
REMARK  249  A    between atoms: _609  and  _612
REMARK  250  A    between atoms: _612  and  _613
REMARK  251  A    between atoms: _613  and  _614
REMARK  252  A    between atoms: _614  and  _615
REMARK  253  A    between atoms: _624  and  _626
REMARK  254  A    between atoms: _626  and  _627
REMARK  255  A    between atoms: _626  and  _629
REMARK  256  A    between atoms: _629  and  _630
REMARK                            x       y       z     vdW  Elec       q    Type
REMARK                         _______ _______ _______ _____ _____    ______ ____
ROOT
ATOM      1  CA  MET A   5     -24.605   4.390  -0.214  0.00  0.00    +0.149 C 
ENDROOT
BRANCH   1   2
ATOM      2  C   MET A   5     -25.364   3.055  -0.177  0.00  0.00    +0.241 C 
ATOM      3  O   MET A   5     -25.073   2.152   0.644  0.00  0.00    -0.273 OA
ATOM      4  N   PHE A   6     -26.320   2.916  -1.100  0.00  0.00    -0.297 N 
ATOM      5  H   PHE A   6     -26.411   3.608  -1.871  0.00  0.00    +0.150 HD
BRANCH   4   6
ATOM      6  CA  PHE A   6     -27.231   1.786  -1.015  0.00  0.00    +0.153 C 
BRANCH   6   7
ATOM      7  C   PHE A   6     -26.794   0.524  -1.726  0.00  0.00    +0.241 C 
ATOM      8  O   PHE A   6     -27.254  -0.579  -1.359  0.00  0.00    -0.273 OA
ATOM      9  N   THR A   7     -25.895   0.635  -2.703  0.00  0.00    -0.295 N 
ATOM     10  H   THR A   7     -25.682   1.565  -3.116  0.00  0.00    +0.150 HD
BRANCH   9  11
ATOM     11  CA  THR A   7     -25.216  -0.551  -3.185  0.00  0.00    +0.176 C 
BRANCH  11  12
ATOM     12  C   THR A   7     -24.316  -1.115  -2.085  0.00  0.00    +0.243 C 
ATOM     13  N   THR A   8     -23.565  -0.243  -1.407  0.00  0.00    -0.296 N 
ATOM     14  H   THR A   8     -23.674   0.777  -1.581  0.00  0.00    +0.150 HD
ATOM     15  O   THR A   7     -24.304  -2.323  -1.847  0.00  0.00    -0.273 OA
BRANCH  13  16
ATOM     16  CA  THR A   8     -22.590  -0.711  -0.422  0.00  0.00    +0.164 C 
BRANCH  16  17
ATOM     17  CB  THR A   8     -21.645   0.422   0.056  0.00  0.00    +0.136 C 
ATOM     18  CG2 THR A   8     -20.546  -0.104   0.968  0.00  0.00    +0.034 C 
BRANCH  17  19
ATOM     19  OG1 THR A   8     -21.050   1.065  -1.072  0.00  0.00    -0.382 OA
ATOM     20  HG1 THR A   8     -21.761   1.450  -1.644  0.00  0.00    +0.210 HD
ENDBRANCH  17  19
ENDBRANCH  16  17
BRANCH  16  21
ATOM     21  C   THR A   8     -23.247  -1.334   0.772  0.00  0.00    +0.229 C 
ATOM     22  O   THR A   8     -22.811  -2.350   1.225  0.00  0.00    -0.286 OA
ENDBRANCH  16  21
ENDBRANCH  13  16
ENDBRANCH  11  12
BRANCH  11  23
ATOM     23  CB  THR A   7     -24.365  -0.315  -4.494  0.00  0.00    +0.137 C 
ATOM     24  CG2 THR A   7     -25.292  -0.091  -5.713  0.00  0.00    +0.034 C 
BRANCH  23  25
ATOM     25  OG1 THR A   7     -23.486   0.809  -4.325  0.00  0.00    -0.382 OA
ATOM     26  HG1 THR A   7     -24.022   1.620  -4.138  0.00  0.00    +0.210 HD
ENDBRANCH  23  25
ENDBRANCH  11  23
ENDBRANCH   9  11
ENDBRANCH   6   7
BRANCH   6  27
ATOM     27  CB  PHE A   6     -28.668   2.242  -1.359  0.00  0.00    +0.055 C 
BRANCH  27  28
ATOM     28  CG  PHE A   6     -29.233   3.170  -0.313  0.00  0.00    -0.020 A 
ATOM     29  CD2 PHE A   6     -29.613   2.675   0.923  0.00  0.00    -0.004 A 
ATOM     30  CE2 PHE A   6     -30.074   3.511   1.895  0.00  0.00    -0.000 A 
ATOM     31  CZ  PHE A   6     -30.167   4.881   1.639  0.00  0.00    -0.000 A 
ATOM     32  CE1 PHE A   6     -29.782   5.379   0.428  0.00  0.00    -0.000 A 
ATOM     33  CD1 PHE A   6     -29.282   4.535  -0.530  0.00  0.00    -0.004 A 
ENDBRANCH  27  28
ENDBRANCH   6  27
ENDBRANCH   4   6
ENDBRANCH   1   2
BRANCH   1  35
ATOM     34  C   GLY A   4     -23.259   3.891  -2.214  0.00  0.00    +0.243 C 
ATOM     35  N   MET A   5     -24.123   4.683  -1.585  0.00  0.00    -0.297 N 
ATOM     36  H   MET A   5     -24.471   5.534  -2.070  0.00  0.00    +0.150 HD
ATOM     37  O   GLY A   4     -22.817   2.876  -1.703  0.00  0.00    -0.273 OA
BRANCH  34  38
ATOM     38  CA  GLY A   4     -22.770   4.335  -3.576  0.00  0.00    +0.176 C 
BRANCH  38  40
ATOM     39  C   PHE A   3     -24.774   4.247  -4.953  0.00  0.00    +0.241 C 
ATOM     40  N   GLY A   4     -23.774   4.966  -4.446  0.00  0.00    -0.295 N 
ATOM     41  H   GLY A   4     -23.703   5.980  -4.667  0.00  0.00    +0.150 HD
ATOM     42  O   PHE A   3     -24.876   3.027  -4.727  0.00  0.00    -0.273 OA
BRANCH  39  43
ATOM     43  CA  PHE A   3     -25.829   5.000  -5.796  0.00  0.00    +0.153 C 
BRANCH  43  46
ATOM     44  C   GLY A   2     -27.009   5.903  -3.869  0.00  0.00    +0.243 C 
ATOM     45  O   GLY A   2     -27.248   4.782  -3.465  0.00  0.00    -0.273 OA
ATOM     46  N   PHE A   3     -26.370   6.107  -5.019  0.00  0.00    -0.297 N 
ATOM     47  H   PHE A   3     -26.254   7.079  -5.371  0.00  0.00    +0.150 HD
BRANCH  44  48
ATOM     48  CA  GLY A   2     -27.461   7.117  -3.083  0.00  0.00    +0.176 C 
BRANCH  48  51
ATOM     49  C   HIS A   1     -25.305   8.267  -2.808  0.00  0.00    +0.239 C 
ATOM     50  O   HIS A   1     -24.744   7.207  -2.491  0.00  0.00    -0.274 OA
ATOM     51  N   GLY A   2     -26.581   8.316  -3.184  0.00  0.00    -0.296 N 
ATOM     52  H   GLY A   2     -26.971   9.206  -3.555  0.00  0.00    +0.150 HD
BRANCH  49  53
ATOM     53  CA  HIS A   1     -24.560   9.590  -2.794  0.00  0.00    +0.151 C 
BRANCH  53  54
ATOM     54  N   HIS A   1     -23.470   9.482  -1.842  0.00  0.00    -0.238 NA
ATOM     55  H   HIS A   1     -22.633   8.926  -2.108  0.00  0.00    +0.142 HD
ENDBRANCH  53  54
BRANCH  53  56
ATOM     56  CB  HIS A   1     -23.974   9.927  -4.171  0.00  0.00    +0.074 C 
BRANCH  56  57
ATOM     57  CG  HIS A   1     -24.984  10.060  -5.259  0.00  0.00    +0.082 A 
ATOM     58  CD2 HIS A   1     -25.691  11.135  -5.693  0.00  0.00    +0.115 A 
ATOM     59  NE2 HIS A   1     -26.502  10.703  -6.719  0.00  0.00    -0.221 NA
ATOM     60  CE1 HIS A   1     -26.317   9.401  -6.890  0.00  0.00    +0.199 A 
ATOM     61  ND1 HIS A   1     -25.402   8.989  -6.027  0.00  0.00    -0.227 NA
ENDBRANCH  56  57
ENDBRANCH  53  56
ENDBRANCH  49  53
ENDBRANCH  48  51
ENDBRANCH  44  48
ENDBRANCH  43  46
BRANCH  43  62
ATOM     62  CB  PHE A   3     -25.265   5.562  -7.122  0.00  0.00    +0.055 C 
BRANCH  62  63
ATOM     63  CG  PHE A   3     -24.793   4.531  -8.094  0.00  0.00    -0.020 A 
ATOM     64  CD2 PHE A   3     -25.057   3.208  -7.911  0.00  0.00    -0.004 A 
ATOM     65  CE2 PHE A   3     -24.616   2.246  -8.831  0.00  0.00    -0.000 A 
ATOM     66  CZ  PHE A   3     -23.910   2.620  -9.961  0.00  0.00    -0.000 A 
ATOM     67  CE1 PHE A   3     -23.676   3.956 -10.185  0.00  0.00    -0.000 A 
ATOM     68  CD1 PHE A   3     -24.093   4.911  -9.237  0.00  0.00    -0.004 A 
ENDBRANCH  62  63
ENDBRANCH  43  62
ENDBRANCH  39  43
ENDBRANCH  38  40
ENDBRANCH  34  38
ENDBRANCH   1  35
BRANCH   1  69
ATOM     69  CB  MET A   5     -25.510   5.505   0.279  0.00  0.00    +0.041 C 
BRANCH  69  70
ATOM     70  CG  MET A   5     -26.276   5.141   1.569  0.00  0.00    +0.060 C 
BRANCH  70  71
ATOM     71  SD  MET A   5     -25.166   4.897   2.971  0.00  0.00    -0.139 S 
ATOM     72  CE  MET A   5     -24.467   6.504   3.137  0.00  0.00    +0.069 C 
ENDBRANCH  70  71
ENDBRANCH  69  70
ENDBRANCH   1  69
TORSDOF 29
REMARK  Name = ../refined-set-2016/3ies/3ies_pocket.pdb
REMARK  256 active torsions:
REMARK  status: ('A' for Active; 'I' for Inactive)
REMARK    1  A    between atoms: _1  and  _3
REMARK    2  A    between atoms: _3  and  _4
REMARK    3  A    between atoms: _3  and  _6
REMARK    4  A    between atoms: _6  and  _7
REMARK    5  A    between atoms: _7  and  _8
REMARK    6  A    between atoms: _10  and  _12
REMARK    7  A    between atoms: _12  and  _13
REMARK    8  A    between atoms: _12  and  _15
REMARK    9  A    between atoms: _15  and  _16
REMARK   10  A    between atoms: _21  and  _23
REMARK   11  A    between atoms: _23  and  _24
REMARK   12  A    between atoms: _23  and  _26
REMARK   13  A    between atoms: _26  and  _27
REMARK   14  A    between atoms: _29  and  _31
REMARK   15  A    between atoms: _31  and  _32
REMARK   16  A    between atoms: _31  and  _34
REMARK   17  A    between atoms: _37  and  _39
REMARK   18  A    between atoms: _39  and  _40
REMARK   19  A    between atoms: _39  and  _42
REMARK   20  A    between atoms: _42  and  _43
REMARK   21  A    between atoms: _43  and  _44
REMARK   22  A    between atoms: _44  and  _45
REMARK   23  A    between atoms: _54  and  _56
REMARK   24  A    between atoms: _56  and  _57
REMARK   25  A    between atoms: _56  and  _59
REMARK   26  A    between atoms: _59  and  _60
REMARK   27  A    between atoms: _65  and  _67
REMARK   28  A    between atoms: _67  and  _68
REMARK   29  A    between atoms: _71  and  _73
REMARK   30  A    between atoms: _73  and  _74
REMARK   31  A    between atoms: _73  and  _76
REMARK   32  A    between atoms: _76  and  _77
REMARK   33  A    between atoms: _83  and  _85
REMARK   34  A    between atoms: _85  and  _86
REMARK   35  A    between atoms: _88  and  _90
REMARK   36  A    between atoms: _90  and  _91
REMARK   37  A    between atoms: _90  and  _93
REMARK   38  A    between atoms: _93  and  _94
REMARK   39  A    between atoms: _99  and  _101
REMARK   40  A    between atoms: _101  and  _102
REMARK   41  A    between atoms: _101  and  _104
REMARK   42  A    between atoms: _104  and  _105
REMARK   43  A    between atoms: _110  and  _112
REMARK   44  A    between atoms: _112  and  _113
REMARK   45  A    between atoms: _115  and  _117
REMARK   46  A    between atoms: _117  and  _118
REMARK   47  A    between atoms: _117  and  _120
REMARK   48  A    between atoms: _120  and  _121
REMARK   49  A    between atoms: _127  and  _129
REMARK   50  A    between atoms: _129  and  _130
REMARK   51  A    between atoms: _132  and  _134
REMARK   52  A    between atoms: _134  and  _135
REMARK   53  A    between atoms: _134  and  _137
REMARK   54  A    between atoms: _137  and  _138
REMARK   55  A    between atoms: _138  and  _139
REMARK   56  A    between atoms: _141  and  _143
REMARK   57  A    between atoms: _143  and  _144
REMARK   58  A    between atoms: _143  and  _146
REMARK   59  A    between atoms: _146  and  _147
REMARK   60  A    between atoms: _153  and  _155
REMARK   61  A    between atoms: _155  and  _156
REMARK   62  A    between atoms: _155  and  _158
REMARK   63  A    between atoms: _158  and  _159
REMARK   64  A    between atoms: _162  and  _164
REMARK   65  A    between atoms: _164  and  _165
REMARK   66  A    between atoms: _164  and  _167
REMARK   67  A    between atoms: _167  and  _168
REMARK   68  A    between atoms: _171  and  _173
REMARK   69  A    between atoms: _173  and  _174
REMARK   70  A    between atoms: _173  and  _176
REMARK   71  A    between atoms: _176  and  _177
REMARK   72  A    between atoms: _182  and  _183
REMARK   73  A    between atoms: _185  and  _187
REMARK   74  A    between atoms: _187  and  _188
REMARK   75  A    between atoms: _187  and  _190
REMARK   76  A    between atoms: _190  and  _191
REMARK   77  A    between atoms: _193  and  _195
REMARK   78  A    between atoms: _195  and  _196
REMARK   79  A    between atoms: _199  and  _201
REMARK   80  A    between atoms: _201  and  _202
REMARK   81  A    between atoms: _201  and  _204
REMARK   82  A    between atoms: _204  and  _205
REMARK   83  A    between atoms: _208  and  _210
REMARK   84  A    between atoms: _210  and  _211
REMARK   85  A    between atoms: _210  and  _213
REMARK   86  A    between atoms: _213  and  _214
REMARK   87  A    between atoms: _217  and  _219
REMARK   88  A    between atoms: _219  and  _220
REMARK   89  A    between atoms: _219  and  _222
REMARK   90  A    between atoms: _226  and  _227
REMARK   91  A    between atoms: _232  and  _234
REMARK   92  A    between atoms: _234  and  _235
REMARK   93  A    between atoms: _234  and  _237
REMARK   94  A    between atoms: _237  and  _238
REMARK   95  A    between atoms: _238  and  _239
REMARK   96  A    between atoms: _242  and  _244
REMARK   97  A    between atoms: _244  and  _245
REMARK   98  A    between atoms: _244  and  _247
REMARK   99  A    between atoms: _247  and  _248
REMARK  100  A    between atoms: _251  and  _253
REMARK  101  A    between atoms: _253  and  _254
REMARK  102  A    between atoms: _257  and  _259
REMARK  103  A    between atoms: _259  and  _260
REMARK  104  A    between atoms: _259  and  _262
REMARK  105  A    between atoms: _262  and  _263
REMARK  106  A    between atoms: _265  and  _267
REMARK  107  A    between atoms: _267  and  _268
REMARK  108  A    between atoms: _270  and  _272
REMARK  109  A    between atoms: _272  and  _273
REMARK  110  A    between atoms: _275  and  _277
REMARK  111  A    between atoms: _277  and  _278
REMARK  112  A    between atoms: _282  and  _283
REMARK  113  A    between atoms: _288  and  _290
REMARK  114  A    between atoms: _290  and  _291
REMARK  115  A    between atoms: _290  and  _293
REMARK  116  A    between atoms: _293  and  _294
REMARK  117  A    between atoms: _297  and  _299
REMARK  118  A    between atoms: _299  and  _300
REMARK  119  A    between atoms: _299  and  _302
REMARK  120  A    between atoms: _302  and  _303
REMARK  121  A    between atoms: _305  and  _307
REMARK  122  A    between atoms: _307  and  _308
REMARK  123  A    between atoms: _307  and  _310
REMARK  124  A    between atoms: _310  and  _311
REMARK  125  A    between atoms: _311  and  _312
REMARK  126  A    between atoms: _312  and  _313
REMARK  127  A    between atoms: _322  and  _324
REMARK  128  A    between atoms: _324  and  _325
REMARK  129  A    between atoms: _324  and  _327
REMARK  130  A    between atoms: _327  and  _328
REMARK  131  A    between atoms: _328  and  _329
REMARK  132  A    between atoms: _334  and  _336
REMARK  133  A    between atoms: _336  and  _337
REMARK  134  A    between atoms: _339  and  _341
REMARK  135  A    between atoms: _341  and  _342
REMARK  136  A    between atoms: _341  and  _344
REMARK  137  A    between atoms: _344  and  _345
REMARK  138  A    between atoms: _350  and  _351
REMARK  139  A    between atoms: _353  and  _355
REMARK  140  A    between atoms: _355  and  _356
REMARK  141  A    between atoms: _358  and  _360
REMARK  142  A    between atoms: _360  and  _361
REMARK  143  A    between atoms: _360  and  _363
REMARK  144  A    between atoms: _363  and  _364
REMARK  145  A    between atoms: _367  and  _369
REMARK  146  A    between atoms: _369  and  _370
REMARK  147  A    between atoms: _369  and  _372
REMARK  148  A    between atoms: _372  and  _373
REMARK  149  A    between atoms: _376  and  _378
REMARK  150  A    between atoms: _378  and  _379
REMARK  151  A    between atoms: _378  and  _381
REMARK  152  A    between atoms: _381  and  _382
REMARK  153  A    between atoms: _382  and  _383
REMARK  154  A    between atoms: _386  and  _388
REMARK  155  A    between atoms: _388  and  _389
REMARK  156  A    between atoms: _388  and  _391
REMARK  157  A    between atoms: _391  and  _392
REMARK  158  A    between atoms: _395  and  _397
REMARK  159  A    between atoms: _397  and  _398
REMARK  160  A    between atoms: _397  and  _400
REMARK  161  A    between atoms: _400  and  _401
REMARK  162  A    between atoms: _404  and  _406
REMARK  163  A    between atoms: _406  and  _407
REMARK  164  A    between atoms: _406  and  _409
REMARK  165  A    between atoms: _409  and  _410
REMARK  166  A    between atoms: _412  and  _414
REMARK  167  A    between atoms: _414  and  _415
REMARK  168  A    between atoms: _418  and  _420
REMARK  169  A    between atoms: _420  and  _421
REMARK  170  A    between atoms: _420  and  _423
REMARK  171  A    between atoms: _423  and  _424
REMARK  172  A    between atoms: _427  and  _429
REMARK  173  A    between atoms: _429  and  _430
REMARK  174  A    between atoms: _429  and  _432
REMARK  175  A    between atoms: _432  and  _433
REMARK  176  A    between atoms: _436  and  _438
REMARK  177  A    between atoms: _438  and  _439
REMARK  178  A    between atoms: _438  and  _441
REMARK  179  A    between atoms: _441  and  _442
REMARK  180  A    between atoms: _445  and  _447
REMARK  181  A    between atoms: _447  and  _448
REMARK  182  A    between atoms: _447  and  _450
REMARK  183  A    between atoms: _450  and  _451
REMARK  184  A    between atoms: _454  and  _456
REMARK  185  A    between atoms: _456  and  _457
REMARK  186  A    between atoms: _459  and  _461
REMARK  187  A    between atoms: _461  and  _462
REMARK  188  A    between atoms: _465  and  _467
REMARK  189  A    between atoms: _467  and  _468
REMARK  190  A    between atoms: _467  and  _470
REMARK  191  A    between atoms: _473  and  _475
REMARK  192  A    between atoms: _475  and  _476
REMARK  193  A    between atoms: _478  and  _480
REMARK  194  A    between atoms: _480  and  _481
REMARK  195  A    between atoms: _480  and  _483
REMARK  196  A    between atoms: _486  and  _488
REMARK  197  A    between atoms: _488  and  _489
REMARK  198  A    between atoms: _488  and  _491
REMARK  199  A    between atoms: _491  and  _492
REMARK  200  A    between atoms: _495  and  _497
REMARK  201  A    between atoms: _497  and  _498
REMARK  202  A    between atoms: _497  and  _500
REMARK  203  A    between atoms: _500  and  _501
REMARK  204  A    between atoms: _501  and  _502
REMARK  205  A    between atoms: _504  and  _506
REMARK  206  A    between atoms: _506  and  _507
REMARK  207  A    between atoms: _506  and  _509
REMARK  208  A    between atoms: _509  and  _510
REMARK  209  A    between atoms: _515  and  _516
REMARK  210  A    between atoms: _518  and  _520
REMARK  211  A    between atoms: _520  and  _521
REMARK  212  A    between atoms: _520  and  _523
REMARK  213  A    between atoms: _523  and  _524
REMARK  214  A    between atoms: _527  and  _529
REMARK  215  A    between atoms: _529  and  _530
REMARK  216  A    between atoms: _529  and  _532
REMARK  217  A    between atoms: _532  and  _533
REMARK  218  A    between atoms: _538  and  _540
REMARK  219  A    between atoms: _540  and  _541
REMARK  220  A    between atoms: _540  and  _543
REMARK  221  A    between atoms: _543  and  _544
REMARK  222  A    between atoms: _546  and  _548
REMARK  223  A    between atoms: _548  and  _549
REMARK  224  A    between atoms: _551  and  _553
REMARK  225  A    between atoms: _553  and  _554
REMARK  226  A    between atoms: _553  and  _556
REMARK  227  A    between atoms: _556  and  _557
REMARK  228  A    between atoms: _560  and  _562
REMARK  229  A    between atoms: _562  and  _563
REMARK  230  A    between atoms: _562  and  _565
REMARK  231  A    between atoms: _565  and  _566
REMARK  232  A    between atoms: _569  and  _571
REMARK  233  A    between atoms: _571  and  _572
REMARK  234  A    between atoms: _571  and  _574
REMARK  235  A    between atoms: _574  and  _575
REMARK  236  A    between atoms: _581  and  _583
REMARK  237  A    between atoms: _583  and  _584
REMARK  238  A    between atoms: _583  and  _586
REMARK  239  A    between atoms: _586  and  _587
REMARK  240  A    between atoms: _590  and  _592
REMARK  241  A    between atoms: _592  and  _593
REMARK  242  A    between atoms: _592  and  _595
REMARK  243  A    between atoms: _598  and  _600
REMARK  244  A    between atoms: _600  and  _601
REMARK  245  A    between atoms: _600  and  _603
REMARK  246  A    between atoms: _603  and  _604
REMARK  247  A    between atoms: _607  and  _609
REMARK  248  A    between atoms: _609  and  _610
REMARK  249  A    between atoms: _609  and  _612
REMARK  250  A    between atoms: _612  and  _613
REMARK  251  A    between atoms: _613  and  _614
REMARK  252  A    between atoms: _614  and  _615
REMARK  253  A    between atoms: _624  and  _626
REMARK  254  A    between atoms: _626  and  _627
REMARK  255  A    between atoms: _626  and  _629
REMARK  256  A    between atoms: _629  and  _630
REMARK                            x       y       z     vdW  Elec       q    Type
REMARK                         _______ _______ _______ _____ _____    ______ ____
ROOT
ATOM      1  CG  TYR A   1     -22.110  -4.493  -2.400  0.00  0.00    -0.020 A 
ATOM      2  CD2 TYR A   1     -21.520  -3.357  -2.920  0.00  0.00    -0.001 A 
ATOM      3  CE2 TYR A   1     -21.741  -2.950  -4.185  0.00  0.00    +0.036 A 
ATOM      4  CZ  TYR A   1     -22.576  -3.663  -4.984  0.00  0.00    +0.134 A 
ATOM      5  CE1 TYR A   1     -23.194  -4.822  -4.522  0.00  0.00    +0.036 A 
ATOM      6  CD1 TYR A   1     -22.932  -5.237  -3.217  0.00  0.00    -0.001 A 
ENDROOT
BRANCH   4   7
ATOM      7  OH  TYR A   1     -22.735  -3.193  -6.243  0.00  0.00    -0.506 OA
ATOM      8  HH  TYR A   1     -23.359  -3.782  -6.737  0.00  0.00    +0.292 HD
ENDBRANCH   4   7
BRANCH   1   9
ATOM      9  CB  TYR A   1     -21.826  -4.909  -0.989  0.00  0.00    +0.051 C 
BRANCH   9  10
ATOM     10  CA  TYR A   1     -23.000  -5.606  -0.309  0.00  0.00    +0.137 C 
BRANCH  10  11
ATOM     11  N   TYR A   1     -24.151  -4.713  -0.243  0.00  0.00    -0.239 NA
ATOM     12  H   TYR A   1     -24.062  -3.721  -0.541  0.00  0.00    +0.142 HD
ENDBRANCH  10  11
BRANCH  10  13
ATOM     13  C   TYR A   1     -22.567  -6.120   1.055  0.00  0.00    +0.224 C 
ATOM     14  O   TYR A   1     -22.146  -7.271   1.191  0.00  0.00    -0.287 OA
ENDBRANCH  10  13
ENDBRANCH   9  10
ENDBRANCH   1   9
TORSDOF 5
REMARK  Name = ../refined-set-2016/3ies/3ies_pocket.pdb
REMARK  256 active torsions:
REMARK  status: ('A' for Active; 'I' for Inactive)
REMARK    1  A    between atoms: _1  and  _3
REMARK    2  A    between atoms: _3  and  _4
REMARK    3  A    between atoms: _3  and  _6
REMARK    4  A    between atoms: _6  and  _7
REMARK    5  A    between atoms: _7  and  _8
REMARK    6  A    between atoms: _10  and  _12
REMARK    7  A    between atoms: _12  and  _13
REMARK    8  A    between atoms: _12  and  _15
REMARK    9  A    between atoms: _15  and  _16
REMARK   10  A    between atoms: _21  and  _23
REMARK   11  A    between atoms: _23  and  _24
REMARK   12  A    between atoms: _23  and  _26
REMARK   13  A    between atoms: _26  and  _27
REMARK   14  A    between atoms: _29  and  _31
REMARK   15  A    between atoms: _31  and  _32
REMARK   16  A    between atoms: _31  and  _34
REMARK   17  A    between atoms: _37  and  _39
REMARK   18  A    between atoms: _39  and  _40
REMARK   19  A    between atoms: _39  and  _42
REMARK   20  A    between atoms: _42  and  _43
REMARK   21  A    between atoms: _43  and  _44
REMARK   22  A    between atoms: _44  and  _45
REMARK   23  A    between atoms: _54  and  _56
REMARK   24  A    between atoms: _56  and  _57
REMARK   25  A    between atoms: _56  and  _59
REMARK   26  A    between atoms: _59  and  _60
REMARK   27  A    between atoms: _65  and  _67
REMARK   28  A    between atoms: _67  and  _68
REMARK   29  A    between atoms: _71  and  _73
REMARK   30  A    between atoms: _73  and  _74
REMARK   31  A    between atoms: _73  and  _76
REMARK   32  A    between atoms: _76  and  _77
REMARK   33  A    between atoms: _83  and  _85
REMARK   34  A    between atoms: _85  and  _86
REMARK   35  A    between atoms: _88  and  _90
REMARK   36  A    between atoms: _90  and  _91
REMARK   37  A    between atoms: _90  and  _93
REMARK   38  A    between atoms: _93  and  _94
REMARK   39  A    between atoms: _99  and  _101
REMARK   40  A    between atoms: _101  and  _102
REMARK   41  A    between atoms: _101  and  _104
REMARK   42  A    between atoms: _104  and  _105
REMARK   43  A    between atoms: _110  and  _112
REMARK   44  A    between atoms: _112  and  _113
REMARK   45  A    between atoms: _115  and  _117
REMARK   46  A    between atoms: _117  and  _118
REMARK   47  A    between atoms: _117  and  _120
REMARK   48  A    between atoms: _120  and  _121
REMARK   49  A    between atoms: _127  and  _129
REMARK   50  A    between atoms: _129  and  _130
REMARK   51  A    between atoms: _132  and  _134
REMARK   52  A    between atoms: _134  and  _135
REMARK   53  A    between atoms: _134  and  _137
REMARK   54  A    between atoms: _137  and  _138
REMARK   55  A    between atoms: _138  and  _139
REMARK   56  A    between atoms: _141  and  _143
REMARK   57  A    between atoms: _143  and  _144
REMARK   58  A    between atoms: _143  and  _146
REMARK   59  A    between atoms: _146  and  _147
REMARK   60  A    between atoms: _153  and  _155
REMARK   61  A    between atoms: _155  and  _156
REMARK   62  A    between atoms: _155  and  _158
REMARK   63  A    between atoms: _158  and  _159
REMARK   64  A    between atoms: _162  and  _164
REMARK   65  A    between atoms: _164  and  _165
REMARK   66  A    between atoms: _164  and  _167
REMARK   67  A    between atoms: _167  and  _168
REMARK   68  A    between atoms: _171  and  _173
REMARK   69  A    between atoms: _173  and  _174
REMARK   70  A    between atoms: _173  and  _176
REMARK   71  A    between atoms: _176  and  _177
REMARK   72  A    between atoms: _182  and  _183
REMARK   73  A    between atoms: _185  and  _187
REMARK   74  A    between atoms: _187  and  _188
REMARK   75  A    between atoms: _187  and  _190
REMARK   76  A    between atoms: _190  and  _191
REMARK   77  A    between atoms: _193  and  _195
REMARK   78  A    between atoms: _195  and  _196
REMARK   79  A    between atoms: _199  and  _201
REMARK   80  A    between atoms: _201  and  _202
REMARK   81  A    between atoms: _201  and  _204
REMARK   82  A    between atoms: _204  and  _205
REMARK   83  A    between atoms: _208  and  _210
REMARK   84  A    between atoms: _210  and  _211
REMARK   85  A    between atoms: _210  and  _213
REMARK   86  A    between atoms: _213  and  _214
REMARK   87  A    between atoms: _217  and  _219
REMARK   88  A    between atoms: _219  and  _220
REMARK   89  A    between atoms: _219  and  _222
REMARK   90  A    between atoms: _226  and  _227
REMARK   91  A    between atoms: _232  and  _234
REMARK   92  A    between atoms: _234  and  _235
REMARK   93  A    between atoms: _234  and  _237
REMARK   94  A    between atoms: _237  and  _238
REMARK   95  A    between atoms: _238  and  _239
REMARK   96  A    between atoms: _242  and  _244
REMARK   97  A    between atoms: _244  and  _245
REMARK   98  A    between atoms: _244  and  _247
REMARK   99  A    between atoms: _247  and  _248
REMARK  100  A    between atoms: _251  and  _253
REMARK  101  A    between atoms: _253  and  _254
REMARK  102  A    between atoms: _257  and  _259
REMARK  103  A    between atoms: _259  and  _260
REMARK  104  A    between atoms: _259  and  _262
REMARK  105  A    between atoms: _262  and  _263
REMARK  106  A    between atoms: _265  and  _267
REMARK  107  A    between atoms: _267  and  _268
REMARK  108  A    between atoms: _270  and  _272
REMARK  109  A    between atoms: _272  and  _273
REMARK  110  A    between atoms: _275  and  _277
REMARK  111  A    between atoms: _277  and  _278
REMARK  112  A    between atoms: _282  and  _283
REMARK  113  A    between atoms: _288  and  _290
REMARK  114  A    between atoms: _290  and  _291
REMARK  115  A    between atoms: _290  and  _293
REMARK  116  A    between atoms: _293  and  _294
REMARK  117  A    between atoms: _297  and  _299
REMARK  118  A    between atoms: _299  and  _300
REMARK  119  A    between atoms: _299  and  _302
REMARK  120  A    between atoms: _302  and  _303
REMARK  121  A    between atoms: _305  and  _307
REMARK  122  A    between atoms: _307  and  _308
REMARK  123  A    between atoms: _307  and  _310
REMARK  124  A    between atoms: _310  and  _311
REMARK  125  A    between atoms: _311  and  _312
REMARK  126  A    between atoms: _312  and  _313
REMARK  127  A    between atoms: _322  and  _324
REMARK  128  A    between atoms: _324  and  _325
REMARK  129  A    between atoms: _324  and  _327
REMARK  130  A    between atoms: _327  and  _328
REMARK  131  A    between atoms: _328  and  _329
REMARK  132  A    between atoms: _334  and  _336
REMARK  133  A    between atoms: _336  and  _337
REMARK  134  A    between atoms: _339  and  _341
REMARK  135  A    between atoms: _341  and  _342
REMARK  136  A    between atoms: _341  and  _344
REMARK  137  A    between atoms: _344  and  _345
REMARK  138  A    between atoms: _350  and  _351
REMARK  139  A    between atoms: _353  and  _355
REMARK  140  A    between atoms: _355  and  _356
REMARK  141  A    between atoms: _358  and  _360
REMARK  142  A    between atoms: _360  and  _361
REMARK  143  A    between atoms: _360  and  _363
REMARK  144  A    between atoms: _363  and  _364
REMARK  145  A    between atoms: _367  and  _369
REMARK  146  A    between atoms: _369  and  _370
REMARK  147  A    between atoms: _369  and  _372
REMARK  148  A    between atoms: _372  and  _373
REMARK  149  A    between atoms: _376  and  _378
REMARK  150  A    between atoms: _378  and  _379
REMARK  151  A    between atoms: _378  and  _381
REMARK  152  A    between atoms: _381  and  _382
REMARK  153  A    between atoms: _382  and  _383
REMARK  154  A    between atoms: _386  and  _388
REMARK  155  A    between atoms: _388  and  _389
REMARK  156  A    between atoms: _388  and  _391
REMARK  157  A    between atoms: _391  and  _392
REMARK  158  A    between atoms: _395  and  _397
REMARK  159  A    between atoms: _397  and  _398
REMARK  160  A    between atoms: _397  and  _400
REMARK  161  A    between atoms: _400  and  _401
REMARK  162  A    between atoms: _404  and  _406
REMARK  163  A    between atoms: _406  and  _407
REMARK  164  A    between atoms: _406  and  _409
REMARK  165  A    between atoms: _409  and  _410
REMARK  166  A    between atoms: _412  and  _414
REMARK  167  A    between atoms: _414  and  _415
REMARK  168  A    between atoms: _418  and  _420
REMARK  169  A    between atoms: _420  and  _421
REMARK  170  A    between atoms: _420  and  _423
REMARK  171  A    between atoms: _423  and  _424
REMARK  172  A    between atoms: _427  and  _429
REMARK  173  A    between atoms: _429  and  _430
REMARK  174  A    between atoms: _429  and  _432
REMARK  175  A    between atoms: _432  and  _433
REMARK  176  A    between atoms: _436  and  _438
REMARK  177  A    between atoms: _438  and  _439
REMARK  178  A    between atoms: _438  and  _441
REMARK  179  A    between atoms: _441  and  _442
REMARK  180  A    between atoms: _445  and  _447
REMARK  181  A    between atoms: _447  and  _448
REMARK  182  A    between atoms: _447  and  _450
REMARK  183  A    between atoms: _450  and  _451
REMARK  184  A    between atoms: _454  and  _456
REMARK  185  A    between atoms: _456  and  _457
REMARK  186  A    between atoms: _459  and  _461
REMARK  187  A    between atoms: _461  and  _462
REMARK  188  A    between atoms: _465  and  _467
REMARK  189  A    between atoms: _467  and  _468
REMARK  190  A    between atoms: _467  and  _470
REMARK  191  A    between atoms: _473  and  _475
REMARK  192  A    between atoms: _475  and  _476
REMARK  193  A    between atoms: _478  and  _480
REMARK  194  A    between atoms: _480  and  _481
REMARK  195  A    between atoms: _480  and  _483
REMARK  196  A    between atoms: _486  and  _488
REMARK  197  A    between atoms: _488  and  _489
REMARK  198  A    between atoms: _488  and  _491
REMARK  199  A    between atoms: _491  and  _492
REMARK  200  A    between atoms: _495  and  _497
REMARK  201  A    between atoms: _497  and  _498
REMARK  202  A    between atoms: _497  and  _500
REMARK  203  A    between atoms: _500  and  _501
REMARK  204  A    between atoms: _501  and  _502
REMARK  205  A    between atoms: _504  and  _506
REMARK  206  A    between atoms: _506  and  _507
REMARK  207  A    between atoms: _506  and  _509
REMARK  208  A    between atoms: _509  and  _510
REMARK  209  A    between atoms: _515  and  _516
REMARK  210  A    between atoms: _518  and  _520
REMARK  211  A    between atoms: _520  and  _521
REMARK  212  A    between atoms: _520  and  _523
REMARK  213  A    between atoms: _523  and  _524
REMARK  214  A    between atoms: _527  and  _529
REMARK  215  A    between atoms: _529  and  _530
REMARK  216  A    between atoms: _529  and  _532
REMARK  217  A    between atoms: _532  and  _533
REMARK  218  A    between atoms: _538  and  _540
REMARK  219  A    between atoms: _540  and  _541
REMARK  220  A    between atoms: _540  and  _543
REMARK  221  A    between atoms: _543  and  _544
REMARK  222  A    between atoms: _546  and  _548
REMARK  223  A    between atoms: _548  and  _549
REMARK  224  A    between atoms: _551  and  _553
REMARK  225  A    between atoms: _553  and  _554
REMARK  226  A    between atoms: _553  and  _556
REMARK  227  A    between atoms: _556  and  _557
REMARK  228  A    between atoms: _560  and  _562
REMARK  229  A    between atoms: _562  and  _563
REMARK  230  A    between atoms: _562  and  _565
REMARK  231  A    between atoms: _565  and  _566
REMARK  232  A    between atoms: _569  and  _571
REMARK  233  A    between atoms: _571  and  _572
REMARK  234  A    between atoms: _571  and  _574
REMARK  235  A    between atoms: _574  and  _575
REMARK  236  A    between atoms: _581  and  _583
REMARK  237  A    between atoms: _583  and  _584
REMARK  238  A    between atoms: _583  and  _586
REMARK  239  A    between atoms: _586  and  _587
REMARK  240  A    between atoms: _590  and  _592
REMARK  241  A    between atoms: _592  and  _593
REMARK  242  A    between atoms: _592  and  _595
REMARK  243  A    between atoms: _598  and  _600
REMARK  244  A    between atoms: _600  and  _601
REMARK  245  A    between atoms: _600  and  _603
REMARK  246  A    between atoms: _603  and  _604
REMARK  247  A    between atoms: _607  and  _609
REMARK  248  A    between atoms: _609  and  _610
REMARK  249  A    between atoms: _609  and  _612
REMARK  250  A    between atoms: _612  and  _613
REMARK  251  A    between atoms: _613  and  _614
REMARK  252  A    between atoms: _614  and  _615
REMARK  253  A    between atoms: _624  and  _626
REMARK  254  A    between atoms: _626  and  _627
REMARK  255  A    between atoms: _626  and  _629
REMARK  256  A    between atoms: _629  and  _630
REMARK                            x       y       z     vdW  Elec       q    Type
REMARK                         _______ _______ _______ _____ _____    ______ ____
ROOT
ATOM      1  C   LEU A   3     -19.151   1.268 -11.040  0.00  0.00    +0.241 C 
ATOM      2  O   LEU A   3     -18.207   1.809 -10.463  0.00  0.00    -0.273 OA
ATOM      3  N   LEU A   4     -19.747   1.763 -12.121  0.00  0.00    -0.297 N 
ATOM      4  H   LEU A   4     -20.536   1.235 -12.545  0.00  0.00    +0.150 HD
ENDROOT
BRANCH   1   5
ATOM      5  CA  LEU A   3     -19.742   0.014 -10.456  0.00  0.00    +0.149 C 
BRANCH   5   7
ATOM      6  C   ALA A   2     -18.811  -2.102 -11.261  0.00  0.00    +0.241 C 
ATOM      7  N   LEU A   3     -18.771  -1.058 -10.435  0.00  0.00    -0.297 N 
ATOM      8  H   LEU A   3     -18.001  -1.011  -9.738  0.00  0.00    +0.150 HD
ATOM      9  O   ALA A   2     -19.647  -2.243 -12.182  0.00  0.00    -0.273 OA
BRANCH   6  10
ATOM     10  CA  ALA A   2     -17.725  -3.144 -11.040  0.00  0.00    +0.149 C 
ATOM     11  CB  ALA A   2     -16.618  -2.928 -12.062  0.00  0.00    +0.031 C 
BRANCH  10  14
ATOM     12  C   SER A   1     -18.233  -5.384 -10.164  0.00  0.00    +0.241 C 
ATOM     13  O   SER A   1     -17.659  -5.148  -9.109  0.00  0.00    -0.274 OA
ATOM     14  N   ALA A   2     -18.291  -4.504 -11.162  0.00  0.00    -0.297 N 
ATOM     15  H   ALA A   2     -18.748  -4.782 -12.054  0.00  0.00    +0.150 HD
BRANCH  12  16
ATOM     16  CA  SER A   1     -18.854  -6.759 -10.403  0.00  0.00    +0.174 C 
BRANCH  16  17
ATOM     17  N   SER A   1     -17.923  -7.829 -10.039  0.00  0.00    -0.236 NA
ATOM     18  H   SER A   1     -17.334  -7.723  -9.189  0.00  0.00    +0.142 HD
ENDBRANCH  16  17
BRANCH  16  19
ATOM     19  CB  SER A   1     -20.154  -6.883  -9.607  0.00  0.00    +0.163 C 
BRANCH  19  20
ATOM     20  OG  SER A   1     -21.007  -5.763  -9.888  0.00  0.00    -0.380 OA
ATOM     21  H   SER A   1     -21.846  -5.850  -9.370  0.00  0.00    +0.211 HD
ENDBRANCH  19  20
ENDBRANCH  16  19
ENDBRANCH  12  16
ENDBRANCH  10  14
ENDBRANCH   6  10
ENDBRANCH   5   7
BRANCH   5  22
ATOM     22  CB  LEU A   3     -20.132   0.399  -9.037  0.00  0.00    +0.029 C 
BRANCH  22  23
ATOM     23  CG  LEU A   3     -21.046  -0.533  -8.282  0.00  0.00    +0.002 C 
ATOM     24  CD2 LEU A   3     -21.653   0.244  -7.105  0.00  0.00    +0.000 C 
ATOM     25  CD1 LEU A   3     -22.117  -1.032  -9.206  0.00  0.00    +0.000 C 
ENDBRANCH  22  23
ENDBRANCH   5  22
ENDBRANCH   1   5
BRANCH   3  26
ATOM     26  CA  LEU A   4     -19.328   3.036 -12.740  0.00  0.00    +0.149 C 
BRANCH  26  27
ATOM     27  C   LEU A   4     -20.507   4.018 -12.994  0.00  0.00    +0.241 C 
ATOM     28  O   LEU A   4     -21.661   3.648 -12.945  0.00  0.00    -0.273 OA
ATOM     29  N   VAL A   5     -20.175   5.259 -13.319  0.00  0.00    -0.297 N 
ATOM     30  H   VAL A   5     -19.177   5.543 -13.247  0.00  0.00    +0.150 HD
BRANCH  29  31
ATOM     31  CA  VAL A   5     -21.150   6.241 -13.773  0.00  0.00    +0.149 C 
BRANCH  31  32
ATOM     32  C   VAL A   5     -20.920   6.468 -15.234  0.00  0.00    +0.244 C 
ATOM     33  O   VAL A   5     -19.834   6.141 -15.745  0.00  0.00    -0.273 OA
ATOM     34  N   PRO A   6     -21.946   6.988 -15.936  0.00  0.00    -0.273 N 
ATOM     35  CD  PRO A   6     -23.290   7.387 -15.486  0.00  0.00    +0.094 C 
ATOM     36  CG  PRO A   6     -24.095   7.334 -16.759  0.00  0.00    +0.024 C 
ATOM     37  CB  PRO A   6     -23.137   7.743 -17.810  0.00  0.00    +0.030 C 
ATOM     38  CA  PRO A   6     -21.844   7.029 -17.384  0.00  0.00    +0.140 C 
BRANCH  38  39
ATOM     39  C   PRO A   6     -20.625   7.757 -17.911  0.00  0.00    +0.227 C 
ATOM     40  O   PRO A   6     -20.170   7.422 -18.996  0.00  0.00    -0.286 OA
ENDBRANCH  38  39
ENDBRANCH  31  32
BRANCH  31  41
ATOM     41  CB  VAL A   5     -21.060   7.523 -12.974  0.00  0.00    +0.027 C 
ATOM     42  CG2 VAL A   5     -21.355   7.212 -11.505  0.00  0.00    +0.002 C 
ATOM     43  CG1 VAL A   5     -19.685   8.173 -13.084  0.00  0.00    +0.002 C 
ENDBRANCH  31  41
ENDBRANCH  29  31
ENDBRANCH  26  27
BRANCH  26  44
ATOM     44  CB  LEU A   4     -18.694   2.742 -14.096  0.00  0.00    +0.029 C 
BRANCH  44  45
ATOM     45  CG  LEU A   4     -17.461   1.840 -14.161  0.00  0.00    +0.002 C 
ATOM     46  CD2 LEU A   4     -16.304   2.556 -13.547  0.00  0.00    +0.000 C 
ATOM     47  CD1 LEU A   4     -17.168   1.475 -15.594  0.00  0.00    +0.000 C 
ENDBRANCH  44  45
ENDBRANCH  26  44
ENDBRANCH   3  26
TORSDOF 18
REMARK  Name = ../refined-set-2016/3ies/3ies_pocket.pdb
REMARK  256 active torsions:
REMARK  status: ('A' for Active; 'I' for Inactive)
REMARK    1  A    between atoms: _1  and  _3
REMARK    2  A    between atoms: _3  and  _4
REMARK    3  A    between atoms: _3  and  _6
REMARK    4  A    between atoms: _6  and  _7
REMARK    5  A    between atoms: _7  and  _8
REMARK    6  A    between atoms: _10  and  _12
REMARK    7  A    between atoms: _12  and  _13
REMARK    8  A    between atoms: _12  and  _15
REMARK    9  A    between atoms: _15  and  _16
REMARK   10  A    between atoms: _21  and  _23
REMARK   11  A    between atoms: _23  and  _24
REMARK   12  A    between atoms: _23  and  _26
REMARK   13  A    between atoms: _26  and  _27
REMARK   14  A    between atoms: _29  and  _31
REMARK   15  A    between atoms: _31  and  _32
REMARK   16  A    between atoms: _31  and  _34
REMARK   17  A    between atoms: _37  and  _39
REMARK   18  A    between atoms: _39  and  _40
REMARK   19  A    between atoms: _39  and  _42
REMARK   20  A    between atoms: _42  and  _43
REMARK   21  A    between atoms: _43  and  _44
REMARK   22  A    between atoms: _44  and  _45
REMARK   23  A    between atoms: _54  and  _56
REMARK   24  A    between atoms: _56  and  _57
REMARK   25  A    between atoms: _56  and  _59
REMARK   26  A    between atoms: _59  and  _60
REMARK   27  A    between atoms: _65  and  _67
REMARK   28  A    between atoms: _67  and  _68
REMARK   29  A    between atoms: _71  and  _73
REMARK   30  A    between atoms: _73  and  _74
REMARK   31  A    between atoms: _73  and  _76
REMARK   32  A    between atoms: _76  and  _77
REMARK   33  A    between atoms: _83  and  _85
REMARK   34  A    between atoms: _85  and  _86
REMARK   35  A    between atoms: _88  and  _90
REMARK   36  A    between atoms: _90  and  _91
REMARK   37  A    between atoms: _90  and  _93
REMARK   38  A    between atoms: _93  and  _94
REMARK   39  A    between atoms: _99  and  _101
REMARK   40  A    between atoms: _101  and  _102
REMARK   41  A    between atoms: _101  and  _104
REMARK   42  A    between atoms: _104  and  _105
REMARK   43  A    between atoms: _110  and  _112
REMARK   44  A    between atoms: _112  and  _113
REMARK   45  A    between atoms: _115  and  _117
REMARK   46  A    between atoms: _117  and  _118
REMARK   47  A    between atoms: _117  and  _120
REMARK   48  A    between atoms: _120  and  _121
REMARK   49  A    between atoms: _127  and  _129
REMARK   50  A    between atoms: _129  and  _130
REMARK   51  A    between atoms: _132  and  _134
REMARK   52  A    between atoms: _134  and  _135
REMARK   53  A    between atoms: _134  and  _137
REMARK   54  A    between atoms: _137  and  _138
REMARK   55  A    between atoms: _138  and  _139
REMARK   56  A    between atoms: _141  and  _143
REMARK   57  A    between atoms: _143  and  _144
REMARK   58  A    between atoms: _143  and  _146
REMARK   59  A    between atoms: _146  and  _147
REMARK   60  A    between atoms: _153  and  _155
REMARK   61  A    between atoms: _155  and  _156
REMARK   62  A    between atoms: _155  and  _158
REMARK   63  A    between atoms: _158  and  _159
REMARK   64  A    between atoms: _162  and  _164
REMARK   65  A    between atoms: _164  and  _165
REMARK   66  A    between atoms: _164  and  _167
REMARK   67  A    between atoms: _167  and  _168
REMARK   68  A    between atoms: _171  and  _173
REMARK   69  A    between atoms: _173  and  _174
REMARK   70  A    between atoms: _173  and  _176
REMARK   71  A    between atoms: _176  and  _177
REMARK   72  A    between atoms: _182  and  _183
REMARK   73  A    between atoms: _185  and  _187
REMARK   74  A    between atoms: _187  and  _188
REMARK   75  A    between atoms: _187  and  _190
REMARK   76  A    between atoms: _190  and  _191
REMARK   77  A    between atoms: _193  and  _195
REMARK   78  A    between atoms: _195  and  _196
REMARK   79  A    between atoms: _199  and  _201
REMARK   80  A    between atoms: _201  and  _202
REMARK   81  A    between atoms: _201  and  _204
REMARK   82  A    between atoms: _204  and  _205
REMARK   83  A    between atoms: _208  and  _210
REMARK   84  A    between atoms: _210  and  _211
REMARK   85  A    between atoms: _210  and  _213
REMARK   86  A    between atoms: _213  and  _214
REMARK   87  A    between atoms: _217  and  _219
REMARK   88  A    between atoms: _219  and  _220
REMARK   89  A    between atoms: _219  and  _222
REMARK   90  A    between atoms: _226  and  _227
REMARK   91  A    between atoms: _232  and  _234
REMARK   92  A    between atoms: _234  and  _235
REMARK   93  A    between atoms: _234  and  _237
REMARK   94  A    between atoms: _237  and  _238
REMARK   95  A    between atoms: _238  and  _239
REMARK   96  A    between atoms: _242  and  _244
REMARK   97  A    between atoms: _244  and  _245
REMARK   98  A    between atoms: _244  and  _247
REMARK   99  A    between atoms: _247  and  _248
REMARK  100  A    between atoms: _251  and  _253
REMARK  101  A    between atoms: _253  and  _254
REMARK  102  A    between atoms: _257  and  _259
REMARK  103  A    between atoms: _259  and  _260
REMARK  104  A    between atoms: _259  and  _262
REMARK  105  A    between atoms: _262  and  _263
REMARK  106  A    between atoms: _265  and  _267
REMARK  107  A    between atoms: _267  and  _268
REMARK  108  A    between atoms: _270  and  _272
REMARK  109  A    between atoms: _272  and  _273
REMARK  110  A    between atoms: _275  and  _277
REMARK  111  A    between atoms: _277  and  _278
REMARK  112  A    between atoms: _282  and  _283
REMARK  113  A    between atoms: _288  and  _290
REMARK  114  A    between atoms: _290  and  _291
REMARK  115  A    between atoms: _290  and  _293
REMARK  116  A    between atoms: _293  and  _294
REMARK  117  A    between atoms: _297  and  _299
REMARK  118  A    between atoms: _299  and  _300
REMARK  119  A    between atoms: _299  and  _302
REMARK  120  A    between atoms: _302  and  _303
REMARK  121  A    between atoms: _305  and  _307
REMARK  122  A    between atoms: _307  and  _308
REMARK  123  A    between atoms: _307  and  _310
REMARK  124  A    between atoms: _310  and  _311
REMARK  125  A    between atoms: _311  and  _312
REMARK  126  A    between atoms: _312  and  _313
REMARK  127  A    between atoms: _322  and  _324
REMARK  128  A    between atoms: _324  and  _325
REMARK  129  A    between atoms: _324  and  _327
REMARK  130  A    between atoms: _327  and  _328
REMARK  131  A    between atoms: _328  and  _329
REMARK  132  A    between atoms: _334  and  _336
REMARK  133  A    between atoms: _336  and  _337
REMARK  134  A    between atoms: _339  and  _341
REMARK  135  A    between atoms: _341  and  _342
REMARK  136  A    between atoms: _341  and  _344
REMARK  137  A    between atoms: _344  and  _345
REMARK  138  A    between atoms: _350  and  _351
REMARK  139  A    between atoms: _353  and  _355
REMARK  140  A    between atoms: _355  and  _356
REMARK  141  A    between atoms: _358  and  _360
REMARK  142  A    between atoms: _360  and  _361
REMARK  143  A    between atoms: _360  and  _363
REMARK  144  A    between atoms: _363  and  _364
REMARK  145  A    between atoms: _367  and  _369
REMARK  146  A    between atoms: _369  and  _370
REMARK  147  A    between atoms: _369  and  _372
REMARK  148  A    between atoms: _372  and  _373
REMARK  149  A    between atoms: _376  and  _378
REMARK  150  A    between atoms: _378  and  _379
REMARK  151  A    between atoms: _378  and  _381
REMARK  152  A    between atoms: _381  and  _382
REMARK  153  A    between atoms: _382  and  _383
REMARK  154  A    between atoms: _386  and  _388
REMARK  155  A    between atoms: _388  and  _389
REMARK  156  A    between atoms: _388  and  _391
REMARK  157  A    between atoms: _391  and  _392
REMARK  158  A    between atoms: _395  and  _397
REMARK  159  A    between atoms: _397  and  _398
REMARK  160  A    between atoms: _397  and  _400
REMARK  161  A    between atoms: _400  and  _401
REMARK  162  A    between atoms: _404  and  _406
REMARK  163  A    between atoms: _406  and  _407
REMARK  164  A    between atoms: _406  and  _409
REMARK  165  A    between atoms: _409  and  _410
REMARK  166  A    between atoms: _412  and  _414
REMARK  167  A    between atoms: _414  and  _415
REMARK  168  A    between atoms: _418  and  _420
REMARK  169  A    between atoms: _420  and  _421
REMARK  170  A    between atoms: _420  and  _423
REMARK  171  A    between atoms: _423  and  _424
REMARK  172  A    between atoms: _427  and  _429
REMARK  173  A    between atoms: _429  and  _430
REMARK  174  A    between atoms: _429  and  _432
REMARK  175  A    between atoms: _432  and  _433
REMARK  176  A    between atoms: _436  and  _438
REMARK  177  A    between atoms: _438  and  _439
REMARK  178  A    between atoms: _438  and  _441
REMARK  179  A    between atoms: _441  and  _442
REMARK  180  A    between atoms: _445  and  _447
REMARK  181  A    between atoms: _447  and  _448
REMARK  182  A    between atoms: _447  and  _450
REMARK  183  A    between atoms: _450  and  _451
REMARK  184  A    between atoms: _454  and  _456
REMARK  185  A    between atoms: _456  and  _457
REMARK  186  A    between atoms: _459  and  _461
REMARK  187  A    between atoms: _461  and  _462
REMARK  188  A    between atoms: _465  and  _467
REMARK  189  A    between atoms: _467  and  _468
REMARK  190  A    between atoms: _467  and  _470
REMARK  191  A    between atoms: _473  and  _475
REMARK  192  A    between atoms: _475  and  _476
REMARK  193  A    between atoms: _478  and  _480
REMARK  194  A    between atoms: _480  and  _481
REMARK  195  A    between atoms: _480  and  _483
REMARK  196  A    between atoms: _486  and  _488
REMARK  197  A    between atoms: _488  and  _489
REMARK  198  A    between atoms: _488  and  _491
REMARK  199  A    between atoms: _491  and  _492
REMARK  200  A    between atoms: _495  and  _497
REMARK  201  A    between atoms: _497  and  _498
REMARK  202  A    between atoms: _497  and  _500
REMARK  203  A    between atoms: _500  and  _501
REMARK  204  A    between atoms: _501  and  _502
REMARK  205  A    between atoms: _504  and  _506
REMARK  206  A    between atoms: _506  and  _507
REMARK  207  A    between atoms: _506  and  _509
REMARK  208  A    between atoms: _509  and  _510
REMARK  209  A    between atoms: _515  and  _516
REMARK  210  A    between atoms: _518  and  _520
REMARK  211  A    between atoms: _520  and  _521
REMARK  212  A    between atoms: _520  and  _523
REMARK  213  A    between atoms: _523  and  _524
REMARK  214  A    between atoms: _527  and  _529
REMARK  215  A    between atoms: _529  and  _530
REMARK  216  A    between atoms: _529  and  _532
REMARK  217  A    between atoms: _532  and  _533
REMARK  218  A    between atoms: _538  and  _540
REMARK  219  A    between atoms: _540  and  _541
REMARK  220  A    between atoms: _540  and  _543
REMARK  221  A    between atoms: _543  and  _544
REMARK  222  A    between atoms: _546  and  _548
REMARK  223  A    between atoms: _548  and  _549
REMARK  224  A    between atoms: _551  and  _553
REMARK  225  A    between atoms: _553  and  _554
REMARK  226  A    between atoms: _553  and  _556
REMARK  227  A    between atoms: _556  and  _557
REMARK  228  A    between atoms: _560  and  _562
REMARK  229  A    between atoms: _562  and  _563
REMARK  230  A    between atoms: _562  and  _565
REMARK  231  A    between atoms: _565  and  _566
REMARK  232  A    between atoms: _569  and  _571
REMARK  233  A    between atoms: _571  and  _572
REMARK  234  A    between atoms: _571  and  _574
REMARK  235  A    between atoms: _574  and  _575
REMARK  236  A    between atoms: _581  and  _583
REMARK  237  A    between atoms: _583  and  _584
REMARK  238  A    between atoms: _583  and  _586
REMARK  239  A    between atoms: _586  and  _587
REMARK  240  A    between atoms: _590  and  _592
REMARK  241  A    between atoms: _592  and  _593
REMARK  242  A    between atoms: _592  and  _595
REMARK  243  A    between atoms: _598  and  _600
REMARK  244  A    between atoms: _600  and  _601
REMARK  245  A    between atoms: _600  and  _603
REMARK  246  A    between atoms: _603  and  _604
REMARK  247  A    between atoms: _607  and  _609
REMARK  248  A    between atoms: _609  and  _610
REMARK  249  A    between atoms: _609  and  _612
REMARK  250  A    between atoms: _612  and  _613
REMARK  251  A    between atoms: _613  and  _614
REMARK  252  A    between atoms: _614  and  _615
REMARK  253  A    between atoms: _624  and  _626
REMARK  254  A    between atoms: _626  and  _627
REMARK  255  A    between atoms: _626  and  _629
REMARK  256  A    between atoms: _629  and  _630
REMARK                            x       y       z     vdW  Elec       q    Type
REMARK                         _______ _______ _______ _____ _____    ______ ____
ROOT
ATOM      1  C   GLY A   5     -26.308   5.843 -12.779  0.00  0.00    +0.243 C 
ATOM      2  N   GLY A   6     -27.339   6.662 -12.620  0.00  0.00    -0.295 N 
ATOM      3  H   GLY A   6     -28.301   6.328 -12.832  0.00  0.00    +0.150 HD
ATOM      4  O   GLY A   5     -25.127   6.238 -12.760  0.00  0.00    -0.273 OA
ENDROOT
BRANCH   2   5
ATOM      5  CA  GLY A   6     -27.132   8.043 -12.144  0.00  0.00    +0.176 C 
BRANCH   5   6
ATOM      6  C   GLY A   6     -27.299   9.051 -13.256  0.00  0.00    +0.243 C 
ATOM      7  O   GLY A   6     -27.363  10.245 -13.009  0.00  0.00    -0.273 OA
ATOM      8  N   ALA A   7     -27.373   8.564 -14.490  0.00  0.00    -0.297 N 
ATOM      9  H   ALA A   7     -27.362   7.533 -14.623  0.00  0.00    +0.150 HD
BRANCH   8  10
ATOM     10  CA  ALA A   7     -27.468   9.419 -15.658  0.00  0.00    +0.149 C 
ATOM     11  CB  ALA A   7     -26.196  10.299 -15.820  0.00  0.00    +0.031 C 
BRANCH  10  12
ATOM     12  C   ALA A   7     -27.658   8.560 -16.861  0.00  0.00    +0.244 C 
ATOM     13  O   ALA A   7     -27.439   7.352 -16.816  0.00  0.00    -0.273 OA
ATOM     14  N   PRO A   8     -28.082   9.183 -17.957  0.00  0.00    -0.272 N 
ATOM     15  CD  PRO A   8     -28.310  10.636 -18.009  0.00  0.00    +0.094 C 
ATOM     16  CG  PRO A   8     -29.143  10.787 -19.232  0.00  0.00    +0.024 C 
ATOM     17  CB  PRO A   8     -28.731   9.720 -20.139  0.00  0.00    +0.031 C 
ATOM     18  CA  PRO A   8     -28.334   8.549 -19.233  0.00  0.00    +0.152 C 
BRANCH  18  19
ATOM     19  C   PRO A   8     -27.069   7.879 -19.777  0.00  0.00    +0.241 C 
ATOM     20  O   PRO A   8     -25.990   8.465 -19.751  0.00  0.00    -0.273 OA
ATOM     21  N   LEU A   9     -27.224   6.650 -20.234  0.00  0.00    -0.297 N 
ATOM     22  H   LEU A   9     -28.150   6.191 -20.119  0.00  0.00    +0.150 HD
BRANCH  21  23
ATOM     23  CA  LEU A   9     -26.165   5.912 -20.888  0.00  0.00    +0.149 C 
BRANCH  23  24
ATOM     24  C   LEU A   9     -26.708   5.578 -22.273  0.00  0.00    +0.241 C 
ATOM     25  O   LEU A   9     -27.740   4.943 -22.379  0.00  0.00    -0.273 OA
ATOM     26  N   SER A  10     -26.035   5.985 -23.335  0.00  0.00    -0.296 N 
ATOM     27  H   SER A  10     -25.186   6.575 -23.227  0.00  0.00    +0.150 HD
BRANCH  26  28
ATOM     28  CA  SER A  10     -26.501   5.594 -24.660  0.00  0.00    +0.166 C 
BRANCH  28  29
ATOM     29  CB  SER A  10     -26.294   4.113 -24.887  0.00  0.00    +0.229 C 
ATOM     30  OG  SER A  10     -25.338   3.502 -24.389  0.00  0.00    -0.286 OA
ENDBRANCH  28  29
BRANCH  28  31
ATOM     31  C   SER A  10     -25.822   6.406 -25.771  0.00  0.00    +0.165 C 
BRANCH  31  32
ATOM     32  O   SER A  10     -24.465   6.071 -25.939  0.00  0.00    -0.380 OA
ATOM     33  H   SER A  10     -23.977   6.244 -25.095  0.00  0.00    +0.211 HD
ENDBRANCH  31  32
ENDBRANCH  28  31
ENDBRANCH  26  28
ENDBRANCH  23  24
BRANCH  23  34
ATOM     34  CB  LEU A   9     -25.943   4.608 -20.135  0.00  0.00    +0.029 C 
BRANCH  34  35
ATOM     35  CG  LEU A   9     -24.592   3.902 -20.157  0.00  0.00    +0.002 C 
ATOM     36  CD2 LEU A   9     -24.805   2.397 -20.196  0.00  0.00    +0.000 C 
ATOM     37  CD1 LEU A   9     -23.719   4.374 -21.294  0.00  0.00    +0.000 C 
ENDBRANCH  34  35
ENDBRANCH  23  34
ENDBRANCH  21  23
ENDBRANCH  18  19
ENDBRANCH  10  12
ENDBRANCH   8  10
ENDBRANCH   5   6
ENDBRANCH   2   5
BRANCH   1  38
ATOM     38  CA  GLY A   5     -26.642   4.378 -12.999  0.00  0.00    +0.176 C 
BRANCH  38  40
ATOM     39  C   SER A   4     -25.431   2.421 -13.836  0.00  0.00    +0.243 C 
ATOM     40  N   GLY A   5     -25.428   3.682 -13.398  0.00  0.00    -0.295 N 
ATOM     41  H   GLY A   5     -24.521   4.188 -13.340  0.00  0.00    +0.150 HD
ATOM     42  O   SER A   4     -26.432   1.673 -13.830  0.00  0.00    -0.273 OA
BRANCH  39  43
ATOM     43  CA  SER A   4     -24.111   1.921 -14.366  0.00  0.00    +0.178 C 
BRANCH  43  46
ATOM     44  C   ALA A   3     -22.978  -0.144 -13.676  0.00  0.00    +0.241 C 
ATOM     45  O   ALA A   3     -21.889   0.400 -13.446  0.00  0.00    -0.273 OA
ATOM     46  N   SER A   4     -24.056   0.493 -14.124  0.00  0.00    -0.295 N 
ATOM     47  H   SER A   4     -24.912  -0.068 -14.312  0.00  0.00    +0.150 HD
BRANCH  44  48
ATOM     48  CA  ALA A   3     -23.144  -1.628 -13.500  0.00  0.00    +0.149 C 
ATOM     49  CB  ALA A   3     -23.562  -1.970 -12.081  0.00  0.00    +0.031 C 
BRANCH  48  51
ATOM     50  C   ILE A   2     -21.759  -3.043 -14.899  0.00  0.00    +0.241 C 
ATOM     51  N   ALA A   3     -21.891  -2.275 -13.826  0.00  0.00    -0.297 N 
ATOM     52  H   ALA A   3     -21.072  -2.134 -13.201  0.00  0.00    +0.150 HD
ATOM     53  O   ILE A   2     -22.615  -3.126 -15.782  0.00  0.00    -0.273 OA
BRANCH  50  54
ATOM     54  CA  ILE A   2     -20.459  -3.806 -15.016  0.00  0.00    +0.148 C 
BRANCH  54  57
ATOM     55  C   GLU A   1     -20.248  -6.163 -14.492  0.00  0.00    +0.238 C 
ATOM     56  O   GLU A   1     -19.327  -5.994 -13.669  0.00  0.00    -0.274 OA
ATOM     57  N   ILE A   2     -20.720  -5.194 -15.281  0.00  0.00    -0.297 N 
ATOM     58  H   ILE A   2     -21.292  -5.451 -16.110  0.00  0.00    +0.150 HD
BRANCH  55  59
ATOM     59  CA  GLU A   1     -20.873  -7.533 -14.709  0.00  0.00    +0.145 C 
BRANCH  59  60
ATOM     60  N   GLU A   1     -19.987  -8.653 -14.380  0.00  0.00    -0.238 NA
ATOM     61  H   GLU A   1     -19.223  -8.529 -13.686  0.00  0.00    +0.142 HD
ENDBRANCH  59  60
BRANCH  59  62
ATOM     62  CB  GLU A   1     -22.210  -7.661 -13.938  0.00  0.00    +0.038 C 
BRANCH  62  63
ATOM     63  CG  GLU A   1     -22.257  -6.902 -12.663  0.00  0.00    +0.116 C 
BRANCH  63  64
ATOM     64  CD  GLU A   1     -23.513  -7.138 -11.839  0.00  0.00    +0.365 C 
ATOM     65  OE2 GLU A   1     -23.456  -6.944 -10.601  0.00  0.00    -0.246 OA
ATOM     66  OE1 GLU A   1     -24.541  -7.511 -12.427  0.00  0.00    -0.246 OA
ENDBRANCH  63  64
ENDBRANCH  62  63
ENDBRANCH  59  62
ENDBRANCH  55  59
ENDBRANCH  54  57
BRANCH  54  67
ATOM     67  CB  ILE A   2     -19.639  -3.119 -16.099  0.00  0.00    +0.027 C 
ATOM     68  CG2 ILE A   2     -19.553  -1.612 -15.782  0.00  0.00    +0.002 C 
BRANCH  67  69
ATOM     69  CG1 ILE A   2     -18.253  -3.737 -16.214  0.00  0.00    +0.002 C 
ATOM     70  CD1 ILE A   2     -17.408  -3.126 -17.332  0.00  0.00    +0.000 C 
ENDBRANCH  67  69
ENDBRANCH  54  67
ENDBRANCH  50  54
ENDBRANCH  48  51
ENDBRANCH  44  48
ENDBRANCH  43  46
BRANCH  43  71
ATOM     71  CB  SER A   4     -24.098   2.228 -15.877  0.00  0.00    +0.166 C 
BRANCH  71  72
ATOM     72  OG  SER A   4     -24.357   3.613 -16.178  0.00  0.00    -0.380 OA
ATOM     73  H   SER A   4     -25.249   3.864 -15.829  0.00  0.00    +0.211 HD
ENDBRANCH  71  72
ENDBRANCH  43  71
ENDBRANCH  39  43
ENDBRANCH  38  40
ENDBRANCH   1  38
TORSDOF 30
REMARK  Name = ../refined-set-2016/3ies/3ies_pocket.pdb
REMARK  256 active torsions:
REMARK  status: ('A' for Active; 'I' for Inactive)
REMARK    1  A    between atoms: _1  and  _3
REMARK    2  A    between atoms: _3  and  _4
REMARK    3  A    between atoms: _3  and  _6
REMARK    4  A    between atoms: _6  and  _7
REMARK    5  A    between atoms: _7  and  _8
REMARK    6  A    between atoms: _10  and  _12
REMARK    7  A    between atoms: _12  and  _13
REMARK    8  A    between atoms: _12  and  _15
REMARK    9  A    between atoms: _15  and  _16
REMARK   10  A    between atoms: _21  and  _23
REMARK   11  A    between atoms: _23  and  _24
REMARK   12  A    between atoms: _23  and  _26
REMARK   13  A    between atoms: _26  and  _27
REMARK   14  A    between atoms: _29  and  _31
REMARK   15  A    between atoms: _31  and  _32
REMARK   16  A    between atoms: _31  and  _34
REMARK   17  A    between atoms: _37  and  _39
REMARK   18  A    between atoms: _39  and  _40
REMARK   19  A    between atoms: _39  and  _42
REMARK   20  A    between atoms: _42  and  _43
REMARK   21  A    between atoms: _43  and  _44
REMARK   22  A    between atoms: _44  and  _45
REMARK   23  A    between atoms: _54  and  _56
REMARK   24  A    between atoms: _56  and  _57
REMARK   25  A    between atoms: _56  and  _59
REMARK   26  A    between atoms: _59  and  _60
REMARK   27  A    between atoms: _65  and  _67
REMARK   28  A    between atoms: _67  and  _68
REMARK   29  A    between atoms: _71  and  _73
REMARK   30  A    between atoms: _73  and  _74
REMARK   31  A    between atoms: _73  and  _76
REMARK   32  A    between atoms: _76  and  _77
REMARK   33  A    between atoms: _83  and  _85
REMARK   34  A    between atoms: _85  and  _86
REMARK   35  A    between atoms: _88  and  _90
REMARK   36  A    between atoms: _90  and  _91
REMARK   37  A    between atoms: _90  and  _93
REMARK   38  A    between atoms: _93  and  _94
REMARK   39  A    between atoms: _99  and  _101
REMARK   40  A    between atoms: _101  and  _102
REMARK   41  A    between atoms: _101  and  _104
REMARK   42  A    between atoms: _104  and  _105
REMARK   43  A    between atoms: _110  and  _112
REMARK   44  A    between atoms: _112  and  _113
REMARK   45  A    between atoms: _115  and  _117
REMARK   46  A    between atoms: _117  and  _118
REMARK   47  A    between atoms: _117  and  _120
REMARK   48  A    between atoms: _120  and  _121
REMARK   49  A    between atoms: _127  and  _129
REMARK   50  A    between atoms: _129  and  _130
REMARK   51  A    between atoms: _132  and  _134
REMARK   52  A    between atoms: _134  and  _135
REMARK   53  A    between atoms: _134  and  _137
REMARK   54  A    between atoms: _137  and  _138
REMARK   55  A    between atoms: _138  and  _139
REMARK   56  A    between atoms: _141  and  _143
REMARK   57  A    between atoms: _143  and  _144
REMARK   58  A    between atoms: _143  and  _146
REMARK   59  A    between atoms: _146  and  _147
REMARK   60  A    between atoms: _153  and  _155
REMARK   61  A    between atoms: _155  and  _156
REMARK   62  A    between atoms: _155  and  _158
REMARK   63  A    between atoms: _158  and  _159
REMARK   64  A    between atoms: _162  and  _164
REMARK   65  A    between atoms: _164  and  _165
REMARK   66  A    between atoms: _164  and  _167
REMARK   67  A    between atoms: _167  and  _168
REMARK   68  A    between atoms: _171  and  _173
REMARK   69  A    between atoms: _173  and  _174
REMARK   70  A    between atoms: _173  and  _176
REMARK   71  A    between atoms: _176  and  _177
REMARK   72  A    between atoms: _182  and  _183
REMARK   73  A    between atoms: _185  and  _187
REMARK   74  A    between atoms: _187  and  _188
REMARK   75  A    between atoms: _187  and  _190
REMARK   76  A    between atoms: _190  and  _191
REMARK   77  A    between atoms: _193  and  _195
REMARK   78  A    between atoms: _195  and  _196
REMARK   79  A    between atoms: _199  and  _201
REMARK   80  A    between atoms: _201  and  _202
REMARK   81  A    between atoms: _201  and  _204
REMARK   82  A    between atoms: _204  and  _205
REMARK   83  A    between atoms: _208  and  _210
REMARK   84  A    between atoms: _210  and  _211
REMARK   85  A    between atoms: _210  and  _213
REMARK   86  A    between atoms: _213  and  _214
REMARK   87  A    between atoms: _217  and  _219
REMARK   88  A    between atoms: _219  and  _220
REMARK   89  A    between atoms: _219  and  _222
REMARK   90  A    between atoms: _226  and  _227
REMARK   91  A    between atoms: _232  and  _234
REMARK   92  A    between atoms: _234  and  _235
REMARK   93  A    between atoms: _234  and  _237
REMARK   94  A    between atoms: _237  and  _238
REMARK   95  A    between atoms: _238  and  _239
REMARK   96  A    between atoms: _242  and  _244
REMARK   97  A    between atoms: _244  and  _245
REMARK   98  A    between atoms: _244  and  _247
REMARK   99  A    between atoms: _247  and  _248
REMARK  100  A    between atoms: _251  and  _253
REMARK  101  A    between atoms: _253  and  _254
REMARK  102  A    between atoms: _257  and  _259
REMARK  103  A    between atoms: _259  and  _260
REMARK  104  A    between atoms: _259  and  _262
REMARK  105  A    between atoms: _262  and  _263
REMARK  106  A    between atoms: _265  and  _267
REMARK  107  A    between atoms: _267  and  _268
REMARK  108  A    between atoms: _270  and  _272
REMARK  109  A    between atoms: _272  and  _273
REMARK  110  A    between atoms: _275  and  _277
REMARK  111  A    between atoms: _277  and  _278
REMARK  112  A    between atoms: _282  and  _283
REMARK  113  A    between atoms: _288  and  _290
REMARK  114  A    between atoms: _290  and  _291
REMARK  115  A    between atoms: _290  and  _293
REMARK  116  A    between atoms: _293  and  _294
REMARK  117  A    between atoms: _297  and  _299
REMARK  118  A    between atoms: _299  and  _300
REMARK  119  A    between atoms: _299  and  _302
REMARK  120  A    between atoms: _302  and  _303
REMARK  121  A    between atoms: _305  and  _307
REMARK  122  A    between atoms: _307  and  _308
REMARK  123  A    between atoms: _307  and  _310
REMARK  124  A    between atoms: _310  and  _311
REMARK  125  A    between atoms: _311  and  _312
REMARK  126  A    between atoms: _312  and  _313
REMARK  127  A    between atoms: _322  and  _324
REMARK  128  A    between atoms: _324  and  _325
REMARK  129  A    between atoms: _324  and  _327
REMARK  130  A    between atoms: _327  and  _328
REMARK  131  A    between atoms: _328  and  _329
REMARK  132  A    between atoms: _334  and  _336
REMARK  133  A    between atoms: _336  and  _337
REMARK  134  A    between atoms: _339  and  _341
REMARK  135  A    between atoms: _341  and  _342
REMARK  136  A    between atoms: _341  and  _344
REMARK  137  A    between atoms: _344  and  _345
REMARK  138  A    between atoms: _350  and  _351
REMARK  139  A    between atoms: _353  and  _355
REMARK  140  A    between atoms: _355  and  _356
REMARK  141  A    between atoms: _358  and  _360
REMARK  142  A    between atoms: _360  and  _361
REMARK  143  A    between atoms: _360  and  _363
REMARK  144  A    between atoms: _363  and  _364
REMARK  145  A    between atoms: _367  and  _369
REMARK  146  A    between atoms: _369  and  _370
REMARK  147  A    between atoms: _369  and  _372
REMARK  148  A    between atoms: _372  and  _373
REMARK  149  A    between atoms: _376  and  _378
REMARK  150  A    between atoms: _378  and  _379
REMARK  151  A    between atoms: _378  and  _381
REMARK  152  A    between atoms: _381  and  _382
REMARK  153  A    between atoms: _382  and  _383
REMARK  154  A    between atoms: _386  and  _388
REMARK  155  A    between atoms: _388  and  _389
REMARK  156  A    between atoms: _388  and  _391
REMARK  157  A    between atoms: _391  and  _392
REMARK  158  A    between atoms: _395  and  _397
REMARK  159  A    between atoms: _397  and  _398
REMARK  160  A    between atoms: _397  and  _400
REMARK  161  A    between atoms: _400  and  _401
REMARK  162  A    between atoms: _404  and  _406
REMARK  163  A    between atoms: _406  and  _407
REMARK  164  A    between atoms: _406  and  _409
REMARK  165  A    between atoms: _409  and  _410
REMARK  166  A    between atoms: _412  and  _414
REMARK  167  A    between atoms: _414  and  _415
REMARK  168  A    between atoms: _418  and  _420
REMARK  169  A    between atoms: _420  and  _421
REMARK  170  A    between atoms: _420  and  _423
REMARK  171  A    between atoms: _423  and  _424
REMARK  172  A    between atoms: _427  and  _429
REMARK  173  A    between atoms: _429  and  _430
REMARK  174  A    between atoms: _429  and  _432
REMARK  175  A    between atoms: _432  and  _433
REMARK  176  A    between atoms: _436  and  _438
REMARK  177  A    between atoms: _438  and  _439
REMARK  178  A    between atoms: _438  and  _441
REMARK  179  A    between atoms: _441  and  _442
REMARK  180  A    between atoms: _445  and  _447
REMARK  181  A    between atoms: _447  and  _448
REMARK  182  A    between atoms: _447  and  _450
REMARK  183  A    between atoms: _450  and  _451
REMARK  184  A    between atoms: _454  and  _456
REMARK  185  A    between atoms: _456  and  _457
REMARK  186  A    between atoms: _459  and  _461
REMARK  187  A    between atoms: _461  and  _462
REMARK  188  A    between atoms: _465  and  _467
REMARK  189  A    between atoms: _467  and  _468
REMARK  190  A    between atoms: _467  and  _470
REMARK  191  A    between atoms: _473  and  _475
REMARK  192  A    between atoms: _475  and  _476
REMARK  193  A    between atoms: _478  and  _480
REMARK  194  A    between atoms: _480  and  _481
REMARK  195  A    between atoms: _480  and  _483
REMARK  196  A    between atoms: _486  and  _488
REMARK  197  A    between atoms: _488  and  _489
REMARK  198  A    between atoms: _488  and  _491
REMARK  199  A    between atoms: _491  and  _492
REMARK  200  A    between atoms: _495  and  _497
REMARK  201  A    between atoms: _497  and  _498
REMARK  202  A    between atoms: _497  and  _500
REMARK  203  A    between atoms: _500  and  _501
REMARK  204  A    between atoms: _501  and  _502
REMARK  205  A    between atoms: _504  and  _506
REMARK  206  A    between atoms: _506  and  _507
REMARK  207  A    between atoms: _506  and  _509
REMARK  208  A    between atoms: _509  and  _510
REMARK  209  A    between atoms: _515  and  _516
REMARK  210  A    between atoms: _518  and  _520
REMARK  211  A    between atoms: _520  and  _521
REMARK  212  A    between atoms: _520  and  _523
REMARK  213  A    between atoms: _523  and  _524
REMARK  214  A    between atoms: _527  and  _529
REMARK  215  A    between atoms: _529  and  _530
REMARK  216  A    between atoms: _529  and  _532
REMARK  217  A    between atoms: _532  and  _533
REMARK  218  A    between atoms: _538  and  _540
REMARK  219  A    between atoms: _540  and  _541
REMARK  220  A    between atoms: _540  and  _543
REMARK  221  A    between atoms: _543  and  _544
REMARK  222  A    between atoms: _546  and  _548
REMARK  223  A    between atoms: _548  and  _549
REMARK  224  A    between atoms: _551  and  _553
REMARK  225  A    between atoms: _553  and  _554
REMARK  226  A    between atoms: _553  and  _556
REMARK  227  A    between atoms: _556  and  _557
REMARK  228  A    between atoms: _560  and  _562
REMARK  229  A    between atoms: _562  and  _563
REMARK  230  A    between atoms: _562  and  _565
REMARK  231  A    between atoms: _565  and  _566
REMARK  232  A    between atoms: _569  and  _571
REMARK  233  A    between atoms: _571  and  _572
REMARK  234  A    between atoms: _571  and  _574
REMARK  235  A    between atoms: _574  and  _575
REMARK  236  A    between atoms: _581  and  _583
REMARK  237  A    between atoms: _583  and  _584
REMARK  238  A    between atoms: _583  and  _586
REMARK  239  A    between atoms: _586  and  _587
REMARK  240  A    between atoms: _590  and  _592
REMARK  241  A    between atoms: _592  and  _593
REMARK  242  A    between atoms: _592  and  _595
REMARK  243  A    between atoms: _598  and  _600
REMARK  244  A    between atoms: _600  and  _601
REMARK  245  A    between atoms: _600  and  _603
REMARK  246  A    between atoms: _603  and  _604
REMARK  247  A    between atoms: _607  and  _609
REMARK  248  A    between atoms: _609  and  _610
REMARK  249  A    between atoms: _609  and  _612
REMARK  250  A    between atoms: _612  and  _613
REMARK  251  A    between atoms: _613  and  _614
REMARK  252  A    between atoms: _614  and  _615
REMARK  253  A    between atoms: _624  and  _626
REMARK  254  A    between atoms: _626  and  _627
REMARK  255  A    between atoms: _626  and  _629
REMARK  256  A    between atoms: _629  and  _630
REMARK                            x       y       z     vdW  Elec       q    Type
REMARK                         _______ _______ _______ _____ _____    ______ ____
ROOT
ATOM      1  CA  GLU A   8     -35.846  10.502  -3.469  0.00  0.00    +0.149 C 
ENDROOT
BRANCH   1   2
ATOM      2  C   GLU A   8     -36.510   9.125  -3.497  0.00  0.00    +0.241 C 
ATOM      3  O   GLU A   8     -37.597   8.937  -2.887  0.00  0.00    -0.273 OA
ATOM      4  N   THR A   9     -35.885   8.166  -4.191  0.00  0.00    -0.295 N 
ATOM      5  H   THR A   9     -35.022   8.400  -4.722  0.00  0.00    +0.150 HD
BRANCH   4   6
ATOM      6  CA  THR A   9     -36.387   6.811  -4.217  0.00  0.00    +0.176 C 
BRANCH   6   7
ATOM      7  C   THR A   9     -35.422   5.850  -3.541  0.00  0.00    +0.243 C 
ATOM      8  N   THR A  10     -34.484   6.413  -2.778  0.00  0.00    -0.295 N 
ATOM      9  H   THR A  10     -34.458   7.451  -2.717  0.00  0.00    +0.150 HD
ATOM     10  O   THR A   9     -35.525   4.640  -3.724  0.00  0.00    -0.273 OA
BRANCH   8  11
ATOM     11  CA  THR A  10     -33.480   5.644  -2.014  0.00  0.00    +0.176 C 
BRANCH  11  12
ATOM     12  C   THR A  10     -32.401   5.063  -2.929  0.00  0.00    +0.243 C 
ATOM     13  O   THR A  10     -31.241   5.503  -2.907  0.00  0.00    -0.273 OA
ATOM     14  N   SER A  11     -32.810   4.085  -3.727  0.00  0.00    -0.295 N 
ATOM     15  H   SER A  11     -33.816   3.822  -3.707  0.00  0.00    +0.150 HD
BRANCH  14  16
ATOM     16  CA  SER A  11     -31.927   3.361  -4.629  0.00  0.00    +0.178 C 
BRANCH  16  17
ATOM     17  C   SER A  11     -32.618   3.180  -5.998  0.00  0.00    +0.243 C 
ATOM     18  O   SER A  11     -33.582   3.910  -6.322  0.00  0.00    -0.273 OA
ATOM     19  N   ALA A  12     -32.111   2.263  -6.810  0.00  0.00    -0.297 N 
ATOM     20  H   ALA A  12     -31.315   1.677  -6.488  0.00  0.00    +0.150 HD
BRANCH  19  21
ATOM     21  CA  ALA A  12     -32.651   2.065  -8.142  0.00  0.00    +0.149 C 
ATOM     22  CB  ALA A  12     -31.753   1.179  -8.929  0.00  0.00    +0.031 C 
BRANCH  21  23
ATOM     23  C   ALA A  12     -34.021   1.394  -7.997  0.00  0.00    +0.241 C 
ATOM     24  O   ALA A  12     -34.150   0.463  -7.234  0.00  0.00    -0.273 OA
ATOM     25  N   ILE A  13     -35.031   1.891  -8.707  0.00  0.00    -0.297 N 
ATOM     26  H   ILE A  13     -34.894   2.772  -9.243  0.00  0.00    +0.150 HD
BRANCH  25  27
ATOM     27  CA  ILE A  13     -36.327   1.221  -8.747  0.00  0.00    +0.149 C 
BRANCH  27  28
ATOM     28  C   ILE A  13     -36.633   0.609 -10.127  0.00  0.00    +0.241 C 
ATOM     29  O   ILE A  13     -37.624  -0.119 -10.286  0.00  0.00    -0.273 OA
ATOM     30  N   LEU A  14     -35.748   0.853 -11.093  0.00  0.00    -0.297 N 
ATOM     31  H   LEU A  14     -35.073   1.634 -10.968  0.00  0.00    +0.150 HD
BRANCH  30  32
ATOM     32  CA  LEU A  14     -35.690   0.067 -12.317  0.00  0.00    +0.149 C 
BRANCH  32  33
ATOM     33  C   LEU A  14     -34.287  -0.514 -12.382  0.00  0.00    +0.241 C 
ATOM     34  O   LEU A  14     -33.311   0.231 -12.313  0.00  0.00    -0.273 OA
ATOM     35  N   ILE A  15     -34.190  -1.836 -12.498  0.00  0.00    -0.297 N 
ATOM     36  H   ILE A  15     -35.059  -2.404 -12.553  0.00  0.00    +0.150 HD
BRANCH  35  37
ATOM     37  CA  ILE A  15     -32.902  -2.508 -12.550  0.00  0.00    +0.149 C 
BRANCH  37  38
ATOM     38  C   ILE A  15     -32.890  -3.589 -13.632  0.00  0.00    +0.241 C 
ATOM     39  O   ILE A  15     -33.871  -4.330 -13.776  0.00  0.00    -0.273 OA
ATOM     40  N   THR A  16     -31.778  -3.682 -14.367  0.00  0.00    -0.296 N 
ATOM     41  H   THR A  16     -31.043  -2.953 -14.261  0.00  0.00    +0.150 HD
BRANCH  40  42
ATOM     42  CA  THR A  16     -31.559  -4.773 -15.315  0.00  0.00    +0.164 C 
BRANCH  42  43
ATOM     43  C   THR A  16     -31.697  -6.122 -14.614  0.00  0.00    +0.229 C 
ATOM     44  O   THR A  16     -30.893  -6.465 -13.743  0.00  0.00    -0.286 OA
ENDBRANCH  42  43
BRANCH  42  45
ATOM     45  CB  THR A  16     -30.142  -4.704 -15.941  0.00  0.00    +0.136 C 
ATOM     46  CG2 THR A  16     -29.874  -5.888 -16.837  0.00  0.00    +0.034 C 
BRANCH  45  47
ATOM     47  OG1 THR A  16     -29.995  -3.517 -16.705  0.00  0.00    -0.382 OA
ATOM     48  HG1 THR A  16     -30.669  -3.507 -17.430  0.00  0.00    +0.210 HD
ENDBRANCH  45  47
ENDBRANCH  42  45
ENDBRANCH  40  42
ENDBRANCH  37  38
BRANCH  37  49
ATOM     49  CB  ILE A  15     -32.578  -3.166 -11.203  0.00  0.00    +0.027 C 
ATOM     50  CG2 ILE A  15     -31.276  -3.917 -11.302  0.00  0.00    +0.002 C 
BRANCH  49  51
ATOM     51  CG1 ILE A  15     -32.522  -2.092 -10.087  0.00  0.00    +0.002 C 
ATOM     52  CD1 ILE A  15     -32.275  -2.644  -8.644  0.00  0.00    +0.000 C 
ENDBRANCH  49  51
ENDBRANCH  37  49
ENDBRANCH  35  37
ENDBRANCH  32  33
BRANCH  32  53
ATOM     53  CB  LEU A  14     -35.943   0.937 -13.541  0.00  0.00    +0.029 C 
BRANCH  53  54
ATOM     54  CG  LEU A  14     -37.213   1.798 -13.464  0.00  0.00    +0.002 C 
ATOM     55  CD2 LEU A  14     -38.395   0.881 -13.334  0.00  0.00    +0.000 C 
ATOM     56  CD1 LEU A  14     -37.330   2.665 -14.690  0.00  0.00    +0.000 C 
ENDBRANCH  53  54
ENDBRANCH  32  53
ENDBRANCH  30  32
ENDBRANCH  27  28
BRANCH  27  57
ATOM     57  CB  ILE A  13     -37.467   2.117  -8.246  0.00  0.00    +0.027 C 
ATOM     58  CG2 ILE A  13     -37.102   2.707  -6.911  0.00  0.00    +0.002 C 
BRANCH  57  59
ATOM     59  CG1 ILE A  13     -37.874   3.180  -9.282  0.00  0.00    +0.002 C 
ATOM     60  CD1 ILE A  13     -36.951   4.338  -9.427  0.00  0.00    +0.000 C 
ENDBRANCH  57  59
ENDBRANCH  27  57
ENDBRANCH  25  27
ENDBRANCH  21  23
ENDBRANCH  19  21
ENDBRANCH  16  17
BRANCH  16  61
ATOM     61  CB  SER A  11     -31.550   2.044  -3.986  0.00  0.00    +0.166 C 
BRANCH  61  62
ATOM     62  OG  SER A  11     -30.564   1.352  -4.689  0.00  0.00    -0.380 OA
ATOM     63  H   SER A  11     -29.745   1.906  -4.739  0.00  0.00    +0.211 HD
ENDBRANCH  61  62
ENDBRANCH  16  61
ENDBRANCH  14  16
ENDBRANCH  11  12
BRANCH  11  64
ATOM     64  CB  THR A  10     -34.111   4.503  -1.191  0.00  0.00    +0.137 C 
ATOM     65  CG2 THR A  10     -33.026   3.738  -0.397  0.00  0.00    +0.034 C 
BRANCH  64  66
ATOM     66  OG1 THR A  10     -35.047   5.046  -0.251  0.00  0.00    -0.382 OA
ATOM     67  HG1 THR A  10     -35.758   5.532  -0.739  0.00  0.00    +0.210 HD
ENDBRANCH  64  66
ENDBRANCH  11  64
ENDBRANCH   8  11
ENDBRANCH   6   7
BRANCH   6  68
ATOM     68  CB  THR A   9     -36.687   6.302  -5.662  0.00  0.00    +0.137 C 
ATOM     69  CG2 THR A   9     -37.595   7.291  -6.376  0.00  0.00    +0.034 C 
BRANCH  68  70
ATOM     70  OG1 THR A   9     -35.470   6.110  -6.418  0.00  0.00    -0.382 OA
ATOM     71  HG1 THR A   9     -34.901   5.441  -5.961  0.00  0.00    +0.210 HD
ENDBRANCH  68  70
ENDBRANCH   6  68
ENDBRANCH   4   6
ENDBRANCH   1   2
BRANCH   1  74
ATOM     72  C   THR A   7     -33.431   9.962  -3.506  0.00  0.00    +0.243 C 
ATOM     73  O   THR A   7     -33.489   9.270  -2.488  0.00  0.00    -0.273 OA
ATOM     74  N   GLU A   8     -34.495  10.551  -4.052  0.00  0.00    -0.297 N 
ATOM     75  H   GLU A   8     -34.363  11.075  -4.941  0.00  0.00    +0.150 HD
BRANCH  72  76
ATOM     76  CA  THR A   7     -32.101  10.149  -4.275  0.00  0.00    +0.176 C 
BRANCH  76  79
ATOM     77  C   LEU A   6     -32.957   9.000  -6.194  0.00  0.00    +0.241 C 
ATOM     78  O   LEU A   6     -33.290   8.035  -5.516  0.00  0.00    -0.273 OA
ATOM     79  N   THR A   7     -32.362  10.057  -5.691  0.00  0.00    -0.295 N 
ATOM     80  H   THR A   7     -32.076  10.835  -6.319  0.00  0.00    +0.150 HD
BRANCH  77  81
ATOM     81  CA  LEU A   6     -33.277   9.071  -7.681  0.00  0.00    +0.149 C 
BRANCH  81  83
ATOM     82  C   GLY A   5     -32.929   7.203  -9.184  0.00  0.00    +0.243 C 
ATOM     83  N   LEU A   6     -33.574   7.734  -8.167  0.00  0.00    -0.297 N 
ATOM     84  H   LEU A   6     -34.318   7.180  -7.697  0.00  0.00    +0.150 HD
ATOM     85  O   GLY A   5     -32.206   7.847  -9.930  0.00  0.00    -0.273 OA
BRANCH  82  86
ATOM     86  CA  GLY A   5     -33.181   5.735  -9.422  0.00  0.00    +0.176 C 
BRANCH  86  88
ATOM     87  C   TYR A   4     -32.958   4.219 -11.275  0.00  0.00    +0.241 C 
ATOM     88  N   GLY A   5     -32.572   5.320 -10.657  0.00  0.00    -0.295 N 
ATOM     89  H   GLY A   5     -31.813   5.898 -11.071  0.00  0.00    +0.150 HD
ATOM     90  O   TYR A   4     -33.757   3.412 -10.799  0.00  0.00    -0.273 OA
BRANCH  87  91
ATOM     91  CA  TYR A   4     -32.329   3.992 -12.614  0.00  0.00    +0.153 C 
BRANCH  91  93
ATOM     92  C   GLY A   3     -30.545   2.375 -12.874  0.00  0.00    +0.243 C 
ATOM     93  N   TYR A   4     -31.816   2.638 -12.607  0.00  0.00    -0.297 N 
ATOM     94  H   TYR A   4     -32.461   1.852 -12.387  0.00  0.00    +0.150 HD
ATOM     95  O   GLY A   3     -29.728   3.243 -13.232  0.00  0.00    -0.273 OA
BRANCH  92  96
ATOM     96  CA  GLY A   3     -30.115   0.939 -12.734  0.00  0.00    +0.176 C 
BRANCH  96  98
ATOM     97  C   GLN A   2     -29.079  -0.527 -14.361  0.00  0.00    +0.241 C 
ATOM     98  N   GLY A   3     -29.098   0.641 -13.739  0.00  0.00    -0.295 N 
ATOM     99  H   GLY A   3     -28.379   1.356 -13.969  0.00  0.00    +0.150 HD
ATOM    100  O   GLN A   2     -29.782  -1.458 -14.033  0.00  0.00    -0.273 OA
BRANCH  97 101
ATOM    101  CA  GLN A   2     -28.155  -0.648 -15.524  0.00  0.00    +0.149 C 
BRANCH 101 104
ATOM    102  C   ARG A   1     -26.685  -2.539 -15.210  0.00  0.00    +0.238 C 
ATOM    103  O   ARG A   1     -26.008  -1.892 -14.409  0.00  0.00    -0.274 OA
ATOM    104  N   GLN A   2     -27.769  -2.023 -15.778  0.00  0.00    -0.297 N 
ATOM    105  H   GLN A   2     -28.347  -2.611 -16.412  0.00  0.00    +0.150 HD
BRANCH 102 106
ATOM    106  CA  ARG A   1     -26.291  -3.978 -15.576  0.00  0.00    +0.145 C 
BRANCH 106 107
ATOM    107  N   ARG A   1     -25.292  -3.957 -16.639  0.00  0.00    -0.238 NA
ATOM    108  H   ARG A   1     -24.284  -3.915 -16.385  0.00  0.00    +0.142 HD
ENDBRANCH 106 107
BRANCH 106 109
ATOM    109  CB  ARG A   1     -25.713  -4.699 -14.347  0.00  0.00    +0.030 C 
BRANCH 109 110
ATOM    110  CG  ARG A   1     -26.704  -5.034 -13.254  0.00  0.00    +0.045 C 
BRANCH 110 111
ATOM    111  CD  ARG A   1     -27.406  -6.315 -13.630  0.00  0.00    +0.174 C 
BRANCH 111 112
ATOM    112  NE  ARG A   1     -28.496  -6.678 -12.748  0.00  0.00    -0.265 N 
ATOM    113  CZ  ARG A   1     -28.344  -7.307 -11.596  0.00  0.00    +0.342 C 
ATOM    114  NH2 ARG A   1     -29.417  -7.646 -10.884  0.00  0.00    -0.292 N 
ATOM    115 HH21 ARG A   1     -29.304  -8.141  -9.977  0.00  0.00    +0.255 HD
ATOM    116 HH22 ARG A   1     -30.368  -7.416 -11.235  0.00  0.00    +0.255 HD
ATOM    117  NH1 ARG A   1     -27.130  -7.585 -11.148  0.00  0.00    -0.292 N 
ATOM    118 HH11 ARG A   1     -27.011  -8.080 -10.241  0.00  0.00    +0.255 HD
ATOM    119 HH12 ARG A   1     -26.295  -7.308 -11.703  0.00  0.00    +0.255 HD
ATOM    120  HE  ARG A   1     -29.462  -6.427 -13.041  0.00  0.00    +0.259 HD
ENDBRANCH 111 112
ENDBRANCH 110 111
ENDBRANCH 109 110
ENDBRANCH 106 109
ENDBRANCH 102 106
ENDBRANCH 101 104
BRANCH 101 121
ATOM    121  CB  GLN A   2     -28.856  -0.041 -16.725  0.00  0.00    +0.039 C 
BRANCH 121 122
ATOM    122  CG  GLN A   2     -27.930   0.466 -17.805  0.00  0.00    +0.087 C 
BRANCH 122 123
ATOM    123  CD  GLN A   2     -28.353   1.827 -18.305  0.00  0.00    +0.219 C 
ATOM    124  OE1 GLN A   2     -28.467   2.776 -17.533  0.00  0.00    -0.275 OA
ATOM    125  NE2 GLN A   2     -28.564   1.936 -19.598  0.00  0.00    -0.329 N 
ATOM    126 HE21 GLN A   2     -28.839   2.853 -20.005  0.00  0.00    +0.145 HD
ATOM    127 HE22 GLN A   2     -28.456   1.105 -20.214  0.00  0.00    +0.145 HD
ENDBRANCH 122 123
ENDBRANCH 121 122
ENDBRANCH 101 121
ENDBRANCH  97 101
ENDBRANCH  96  98
ENDBRANCH  92  96
ENDBRANCH  91  93
BRANCH  91 128
ATOM    128  CB  TYR A   4     -33.375   4.216 -13.730  0.00  0.00    +0.055 C 
BRANCH 128 129
ATOM    129  CG  TYR A   4     -34.243   5.453 -13.573  0.00  0.00    -0.020 A 
ATOM    130  CD2 TYR A   4     -35.385   5.428 -12.765  0.00  0.00    -0.001 A 
ATOM    131  CE2 TYR A   4     -36.188   6.533 -12.621  0.00  0.00    +0.036 A 
ATOM    132  CZ  TYR A   4     -35.879   7.709 -13.289  0.00  0.00    +0.134 A 
ATOM    133  CE1 TYR A   4     -34.775   7.777 -14.098  0.00  0.00    +0.036 A 
ATOM    134  CD1 TYR A   4     -33.963   6.622 -14.256  0.00  0.00    -0.001 A 
BRANCH 132 135
ATOM    135  OH  TYR A   4     -36.687   8.798 -13.118  0.00  0.00    -0.506 OA
ATOM    136  HH  TYR A   4     -36.160   9.541 -12.731  0.00  0.00    +0.292 HD
ENDBRANCH 132 135
ENDBRANCH 128 129
ENDBRANCH  91 128
ENDBRANCH  87  91
ENDBRANCH  86  88
ENDBRANCH  82  86
ENDBRANCH  81  83
BRANCH  81 137
ATOM    137  CB  LEU A   6     -34.462  10.041  -7.823  0.00  0.00    +0.029 C 
BRANCH 137 138
ATOM    138  CG  LEU A   6     -35.635   9.951  -8.825  0.00  0.00    +0.002 C 
ATOM    139  CD2 LEU A   6     -36.061  11.339  -9.201  0.00  0.00    +0.000 C 
ATOM    140  CD1 LEU A   6     -35.422   9.108 -10.041  0.00  0.00    +0.000 C 
ENDBRANCH 137 138
ENDBRANCH  81 137
ENDBRANCH  77  81
ENDBRANCH  76  79
BRANCH  76 141
ATOM    141  CB  THR A   7     -31.471  11.493  -3.949  0.00  0.00    +0.137 C 
ATOM    142  CG2 THR A   7     -31.196  11.634  -2.467  0.00  0.00    +0.034 C 
BRANCH 141 143
ATOM    143  OG1 THR A   7     -30.251  11.623  -4.662  0.00  0.00    -0.382 OA
ATOM    144  HG1 THR A   7     -30.431  11.567  -5.634  0.00  0.00    +0.210 HD
ENDBRANCH 141 143
ENDBRANCH  76 141
ENDBRANCH  72  76
ENDBRANCH   1  74
BRANCH   1 145
ATOM    145  CB  GLU A   8     -36.750  11.513  -4.196  0.00  0.00    +0.041 C 
BRANCH 145 146
ATOM    146  CG  GLU A   8     -36.363  12.950  -3.985  0.00  0.00    +0.116 C 
BRANCH 146 147
ATOM    147  CD  GLU A   8     -35.299  13.471  -4.952  0.00  0.00    +0.365 C 
ATOM    148  OE2 GLU A   8     -35.051  14.686  -4.935  0.00  0.00    -0.246 OA
ATOM    149  OE1 GLU A   8     -34.682  12.672  -5.678  0.00  0.00    -0.246 OA
ENDBRANCH 146 147
ENDBRANCH 145 146
ENDBRANCH   1 145
TORSDOF 63
REMARK  Name = ../refined-set-2016/3ies/3ies_pocket.pdb
REMARK  256 active torsions:
REMARK  status: ('A' for Active; 'I' for Inactive)
REMARK    1  A    between atoms: _1  and  _3
REMARK    2  A    between atoms: _3  and  _4
REMARK    3  A    between atoms: _3  and  _6
REMARK    4  A    between atoms: _6  and  _7
REMARK    5  A    between atoms: _7  and  _8
REMARK    6  A    between atoms: _10  and  _12
REMARK    7  A    between atoms: _12  and  _13
REMARK    8  A    between atoms: _12  and  _15
REMARK    9  A    between atoms: _15  and  _16
REMARK   10  A    between atoms: _21  and  _23
REMARK   11  A    between atoms: _23  and  _24
REMARK   12  A    between atoms: _23  and  _26
REMARK   13  A    between atoms: _26  and  _27
REMARK   14  A    between atoms: _29  and  _31
REMARK   15  A    between atoms: _31  and  _32
REMARK   16  A    between atoms: _31  and  _34
REMARK   17  A    between atoms: _37  and  _39
REMARK   18  A    between atoms: _39  and  _40
REMARK   19  A    between atoms: _39  and  _42
REMARK   20  A    between atoms: _42  and  _43
REMARK   21  A    between atoms: _43  and  _44
REMARK   22  A    between atoms: _44  and  _45
REMARK   23  A    between atoms: _54  and  _56
REMARK   24  A    between atoms: _56  and  _57
REMARK   25  A    between atoms: _56  and  _59
REMARK   26  A    between atoms: _59  and  _60
REMARK   27  A    between atoms: _65  and  _67
REMARK   28  A    between atoms: _67  and  _68
REMARK   29  A    between atoms: _71  and  _73
REMARK   30  A    between atoms: _73  and  _74
REMARK   31  A    between atoms: _73  and  _76
REMARK   32  A    between atoms: _76  and  _77
REMARK   33  A    between atoms: _83  and  _85
REMARK   34  A    between atoms: _85  and  _86
REMARK   35  A    between atoms: _88  and  _90
REMARK   36  A    between atoms: _90  and  _91
REMARK   37  A    between atoms: _90  and  _93
REMARK   38  A    between atoms: _93  and  _94
REMARK   39  A    between atoms: _99  and  _101
REMARK   40  A    between atoms: _101  and  _102
REMARK   41  A    between atoms: _101  and  _104
REMARK   42  A    between atoms: _104  and  _105
REMARK   43  A    between atoms: _110  and  _112
REMARK   44  A    between atoms: _112  and  _113
REMARK   45  A    between atoms: _115  and  _117
REMARK   46  A    between atoms: _117  and  _118
REMARK   47  A    between atoms: _117  and  _120
REMARK   48  A    between atoms: _120  and  _121
REMARK   49  A    between atoms: _127  and  _129
REMARK   50  A    between atoms: _129  and  _130
REMARK   51  A    between atoms: _132  and  _134
REMARK   52  A    between atoms: _134  and  _135
REMARK   53  A    between atoms: _134  and  _137
REMARK   54  A    between atoms: _137  and  _138
REMARK   55  A    between atoms: _138  and  _139
REMARK   56  A    between atoms: _141  and  _143
REMARK   57  A    between atoms: _143  and  _144
REMARK   58  A    between atoms: _143  and  _146
REMARK   59  A    between atoms: _146  and  _147
REMARK   60  A    between atoms: _153  and  _155
REMARK   61  A    between atoms: _155  and  _156
REMARK   62  A    between atoms: _155  and  _158
REMARK   63  A    between atoms: _158  and  _159
REMARK   64  A    between atoms: _162  and  _164
REMARK   65  A    between atoms: _164  and  _165
REMARK   66  A    between atoms: _164  and  _167
REMARK   67  A    between atoms: _167  and  _168
REMARK   68  A    between atoms: _171  and  _173
REMARK   69  A    between atoms: _173  and  _174
REMARK   70  A    between atoms: _173  and  _176
REMARK   71  A    between atoms: _176  and  _177
REMARK   72  A    between atoms: _182  and  _183
REMARK   73  A    between atoms: _185  and  _187
REMARK   74  A    between atoms: _187  and  _188
REMARK   75  A    between atoms: _187  and  _190
REMARK   76  A    between atoms: _190  and  _191
REMARK   77  A    between atoms: _193  and  _195
REMARK   78  A    between atoms: _195  and  _196
REMARK   79  A    between atoms: _199  and  _201
REMARK   80  A    between atoms: _201  and  _202
REMARK   81  A    between atoms: _201  and  _204
REMARK   82  A    between atoms: _204  and  _205
REMARK   83  A    between atoms: _208  and  _210
REMARK   84  A    between atoms: _210  and  _211
REMARK   85  A    between atoms: _210  and  _213
REMARK   86  A    between atoms: _213  and  _214
REMARK   87  A    between atoms: _217  and  _219
REMARK   88  A    between atoms: _219  and  _220
REMARK   89  A    between atoms: _219  and  _222
REMARK   90  A    between atoms: _226  and  _227
REMARK   91  A    between atoms: _232  and  _234
REMARK   92  A    between atoms: _234  and  _235
REMARK   93  A    between atoms: _234  and  _237
REMARK   94  A    between atoms: _237  and  _238
REMARK   95  A    between atoms: _238  and  _239
REMARK   96  A    between atoms: _242  and  _244
REMARK   97  A    between atoms: _244  and  _245
REMARK   98  A    between atoms: _244  and  _247
REMARK   99  A    between atoms: _247  and  _248
REMARK  100  A    between atoms: _251  and  _253
REMARK  101  A    between atoms: _253  and  _254
REMARK  102  A    between atoms: _257  and  _259
REMARK  103  A    between atoms: _259  and  _260
REMARK  104  A    between atoms: _259  and  _262
REMARK  105  A    between atoms: _262  and  _263
REMARK  106  A    between atoms: _265  and  _267
REMARK  107  A    between atoms: _267  and  _268
REMARK  108  A    between atoms: _270  and  _272
REMARK  109  A    between atoms: _272  and  _273
REMARK  110  A    between atoms: _275  and  _277
REMARK  111  A    between atoms: _277  and  _278
REMARK  112  A    between atoms: _282  and  _283
REMARK  113  A    between atoms: _288  and  _290
REMARK  114  A    between atoms: _290  and  _291
REMARK  115  A    between atoms: _290  and  _293
REMARK  116  A    between atoms: _293  and  _294
REMARK  117  A    between atoms: _297  and  _299
REMARK  118  A    between atoms: _299  and  _300
REMARK  119  A    between atoms: _299  and  _302
REMARK  120  A    between atoms: _302  and  _303
REMARK  121  A    between atoms: _305  and  _307
REMARK  122  A    between atoms: _307  and  _308
REMARK  123  A    between atoms: _307  and  _310
REMARK  124  A    between atoms: _310  and  _311
REMARK  125  A    between atoms: _311  and  _312
REMARK  126  A    between atoms: _312  and  _313
REMARK  127  A    between atoms: _322  and  _324
REMARK  128  A    between atoms: _324  and  _325
REMARK  129  A    between atoms: _324  and  _327
REMARK  130  A    between atoms: _327  and  _328
REMARK  131  A    between atoms: _328  and  _329
REMARK  132  A    between atoms: _334  and  _336
REMARK  133  A    between atoms: _336  and  _337
REMARK  134  A    between atoms: _339  and  _341
REMARK  135  A    between atoms: _341  and  _342
REMARK  136  A    between atoms: _341  and  _344
REMARK  137  A    between atoms: _344  and  _345
REMARK  138  A    between atoms: _350  and  _351
REMARK  139  A    between atoms: _353  and  _355
REMARK  140  A    between atoms: _355  and  _356
REMARK  141  A    between atoms: _358  and  _360
REMARK  142  A    between atoms: _360  and  _361
REMARK  143  A    between atoms: _360  and  _363
REMARK  144  A    between atoms: _363  and  _364
REMARK  145  A    between atoms: _367  and  _369
REMARK  146  A    between atoms: _369  and  _370
REMARK  147  A    between atoms: _369  and  _372
REMARK  148  A    between atoms: _372  and  _373
REMARK  149  A    between atoms: _376  and  _378
REMARK  150  A    between atoms: _378  and  _379
REMARK  151  A    between atoms: _378  and  _381
REMARK  152  A    between atoms: _381  and  _382
REMARK  153  A    between atoms: _382  and  _383
REMARK  154  A    between atoms: _386  and  _388
REMARK  155  A    between atoms: _388  and  _389
REMARK  156  A    between atoms: _388  and  _391
REMARK  157  A    between atoms: _391  and  _392
REMARK  158  A    between atoms: _395  and  _397
REMARK  159  A    between atoms: _397  and  _398
REMARK  160  A    between atoms: _397  and  _400
REMARK  161  A    between atoms: _400  and  _401
REMARK  162  A    between atoms: _404  and  _406
REMARK  163  A    between atoms: _406  and  _407
REMARK  164  A    between atoms: _406  and  _409
REMARK  165  A    between atoms: _409  and  _410
REMARK  166  A    between atoms: _412  and  _414
REMARK  167  A    between atoms: _414  and  _415
REMARK  168  A    between atoms: _418  and  _420
REMARK  169  A    between atoms: _420  and  _421
REMARK  170  A    between atoms: _420  and  _423
REMARK  171  A    between atoms: _423  and  _424
REMARK  172  A    between atoms: _427  and  _429
REMARK  173  A    between atoms: _429  and  _430
REMARK  174  A    between atoms: _429  and  _432
REMARK  175  A    between atoms: _432  and  _433
REMARK  176  A    between atoms: _436  and  _438
REMARK  177  A    between atoms: _438  and  _439
REMARK  178  A    between atoms: _438  and  _441
REMARK  179  A    between atoms: _441  and  _442
REMARK  180  A    between atoms: _445  and  _447
REMARK  181  A    between atoms: _447  and  _448
REMARK  182  A    between atoms: _447  and  _450
REMARK  183  A    between atoms: _450  and  _451
REMARK  184  A    between atoms: _454  and  _456
REMARK  185  A    between atoms: _456  and  _457
REMARK  186  A    between atoms: _459  and  _461
REMARK  187  A    between atoms: _461  and  _462
REMARK  188  A    between atoms: _465  and  _467
REMARK  189  A    between atoms: _467  and  _468
REMARK  190  A    between atoms: _467  and  _470
REMARK  191  A    between atoms: _473  and  _475
REMARK  192  A    between atoms: _475  and  _476
REMARK  193  A    between atoms: _478  and  _480
REMARK  194  A    between atoms: _480  and  _481
REMARK  195  A    between atoms: _480  and  _483
REMARK  196  A    between atoms: _486  and  _488
REMARK  197  A    between atoms: _488  and  _489
REMARK  198  A    between atoms: _488  and  _491
REMARK  199  A    between atoms: _491  and  _492
REMARK  200  A    between atoms: _495  and  _497
REMARK  201  A    between atoms: _497  and  _498
REMARK  202  A    between atoms: _497  and  _500
REMARK  203  A    between atoms: _500  and  _501
REMARK  204  A    between atoms: _501  and  _502
REMARK  205  A    between atoms: _504  and  _506
REMARK  206  A    between atoms: _506  and  _507
REMARK  207  A    between atoms: _506  and  _509
REMARK  208  A    between atoms: _509  and  _510
REMARK  209  A    between atoms: _515  and  _516
REMARK  210  A    between atoms: _518  and  _520
REMARK  211  A    between atoms: _520  and  _521
REMARK  212  A    between atoms: _520  and  _523
REMARK  213  A    between atoms: _523  and  _524
REMARK  214  A    between atoms: _527  and  _529
REMARK  215  A    between atoms: _529  and  _530
REMARK  216  A    between atoms: _529  and  _532
REMARK  217  A    between atoms: _532  and  _533
REMARK  218  A    between atoms: _538  and  _540
REMARK  219  A    between atoms: _540  and  _541
REMARK  220  A    between atoms: _540  and  _543
REMARK  221  A    between atoms: _543  and  _544
REMARK  222  A    between atoms: _546  and  _548
REMARK  223  A    between atoms: _548  and  _549
REMARK  224  A    between atoms: _551  and  _553
REMARK  225  A    between atoms: _553  and  _554
REMARK  226  A    between atoms: _553  and  _556
REMARK  227  A    between atoms: _556  and  _557
REMARK  228  A    between atoms: _560  and  _562
REMARK  229  A    between atoms: _562  and  _563
REMARK  230  A    between atoms: _562  and  _565
REMARK  231  A    between atoms: _565  and  _566
REMARK  232  A    between atoms: _569  and  _571
REMARK  233  A    between atoms: _571  and  _572
REMARK  234  A    between atoms: _571  and  _574
REMARK  235  A    between atoms: _574  and  _575
REMARK  236  A    between atoms: _581  and  _583
REMARK  237  A    between atoms: _583  and  _584
REMARK  238  A    between atoms: _583  and  _586
REMARK  239  A    between atoms: _586  and  _587
REMARK  240  A    between atoms: _590  and  _592
REMARK  241  A    between atoms: _592  and  _593
REMARK  242  A    between atoms: _592  and  _595
REMARK  243  A    between atoms: _598  and  _600
REMARK  244  A    between atoms: _600  and  _601
REMARK  245  A    between atoms: _600  and  _603
REMARK  246  A    between atoms: _603  and  _604
REMARK  247  A    between atoms: _607  and  _609
REMARK  248  A    between atoms: _609  and  _610
REMARK  249  A    between atoms: _609  and  _612
REMARK  250  A    between atoms: _612  and  _613
REMARK  251  A    between atoms: _613  and  _614
REMARK  252  A    between atoms: _614  and  _615
REMARK  253  A    between atoms: _624  and  _626
REMARK  254  A    between atoms: _626  and  _627
REMARK  255  A    between atoms: _626  and  _629
REMARK  256  A    between atoms: _629  and  _630
REMARK                            x       y       z     vdW  Elec       q    Type
REMARK                         _______ _______ _______ _____ _____    ______ ____
ROOT
ATOM      1  C   ALA A   2     -32.215   0.061 -20.028  0.00  0.00    +0.241 C 
ATOM      2  N   VAL A   3     -33.043   0.544 -19.142  0.00  0.00    -0.297 N 
ATOM      3  H   VAL A   3     -34.024   0.735 -19.429  0.00  0.00    +0.150 HD
ATOM      4  O   ALA A   2     -31.048  -0.194 -19.774  0.00  0.00    -0.273 OA
ENDROOT
BRANCH   1   5
ATOM      5  CA  ALA A   2     -32.831  -0.225 -21.380  0.00  0.00    +0.149 C 
ATOM      6  CB  ALA A   2     -33.562  -1.549 -21.342  0.00  0.00    +0.031 C 
BRANCH   5   8
ATOM      7  C   GLY A   1     -31.355   0.880 -22.957  0.00  0.00    +0.240 C 
ATOM      8  N   ALA A   2     -31.782  -0.242 -22.390  0.00  0.00    -0.297 N 
ATOM      9  H   ALA A   2     -31.360  -1.150 -22.672  0.00  0.00    +0.150 HD
ATOM     10  O   GLY A   1     -31.813   1.966 -22.678  0.00  0.00    -0.274 OA
BRANCH   7  11
ATOM     11  CA  GLY A   1     -30.256   0.755 -23.998  0.00  0.00    +0.169 C 
BRANCH  11  12
ATOM     12  N   GLY A   1     -29.631  -0.538 -23.995  0.00  0.00    -0.236 NA
ATOM     13  H   GLY A   1     -28.826  -0.705 -23.358  0.00  0.00    +0.142 HD
ENDBRANCH  11  12
ENDBRANCH   7  11
ENDBRANCH   5   8
ENDBRANCH   1   5
BRANCH   2  14
ATOM     14  CA  VAL A   3     -32.656   0.821 -17.793  0.00  0.00    +0.149 C 
BRANCH  14  15
ATOM     15  C   VAL A   3     -33.216  -0.319 -16.904  0.00  0.00    +0.241 C 
ATOM     16  O   VAL A   3     -33.096  -0.317 -15.681  0.00  0.00    -0.273 OA
ATOM     17  N   GLY A   4     -33.830  -1.311 -17.518  0.00  0.00    -0.296 N 
ATOM     18  H   GLY A   4     -33.990  -1.255 -18.544  0.00  0.00    +0.150 HD
BRANCH  17  19
ATOM     19  CA  GLY A   4     -34.290  -2.488 -16.783  0.00  0.00    +0.163 C 
BRANCH  19  20
ATOM     20  C   GLY A   4     -35.789  -2.539 -16.521  0.00  0.00    +0.229 C 
ATOM     21  O   GLY A   4     -36.593  -1.889 -17.226  0.00  0.00    -0.286 OA
ENDBRANCH  19  20
ENDBRANCH  17  19
ENDBRANCH  14  15
BRANCH  14  22
ATOM     22  CB  VAL A   3     -33.184   2.251 -17.522  0.00  0.00    +0.027 C 
ATOM     23  CG2 VAL A   3     -34.268   2.300 -16.518  0.00  0.00    +0.002 C 
ATOM     24  CG1 VAL A   3     -32.040   3.221 -17.318  0.00  0.00    +0.002 C 
ENDBRANCH  14  22
ENDBRANCH   2  14
TORSDOF 9
REMARK  Name = ../refined-set-2016/3ies/3ies_pocket.pdb
REMARK  256 active torsions:
REMARK  status: ('A' for Active; 'I' for Inactive)
REMARK    1  A    between atoms: _1  and  _3
REMARK    2  A    between atoms: _3  and  _4
REMARK    3  A    between atoms: _3  and  _6
REMARK    4  A    between atoms: _6  and  _7
REMARK    5  A    between atoms: _7  and  _8
REMARK    6  A    between atoms: _10  and  _12
REMARK    7  A    between atoms: _12  and  _13
REMARK    8  A    between atoms: _12  and  _15
REMARK    9  A    between atoms: _15  and  _16
REMARK   10  A    between atoms: _21  and  _23
REMARK   11  A    between atoms: _23  and  _24
REMARK   12  A    between atoms: _23  and  _26
REMARK   13  A    between atoms: _26  and  _27
REMARK   14  A    between atoms: _29  and  _31
REMARK   15  A    between atoms: _31  and  _32
REMARK   16  A    between atoms: _31  and  _34
REMARK   17  A    between atoms: _37  and  _39
REMARK   18  A    between atoms: _39  and  _40
REMARK   19  A    between atoms: _39  and  _42
REMARK   20  A    between atoms: _42  and  _43
REMARK   21  A    between atoms: _43  and  _44
REMARK   22  A    between atoms: _44  and  _45
REMARK   23  A    between atoms: _54  and  _56
REMARK   24  A    between atoms: _56  and  _57
REMARK   25  A    between atoms: _56  and  _59
REMARK   26  A    between atoms: _59  and  _60
REMARK   27  A    between atoms: _65  and  _67
REMARK   28  A    between atoms: _67  and  _68
REMARK   29  A    between atoms: _71  and  _73
REMARK   30  A    between atoms: _73  and  _74
REMARK   31  A    between atoms: _73  and  _76
REMARK   32  A    between atoms: _76  and  _77
REMARK   33  A    between atoms: _83  and  _85
REMARK   34  A    between atoms: _85  and  _86
REMARK   35  A    between atoms: _88  and  _90
REMARK   36  A    between atoms: _90  and  _91
REMARK   37  A    between atoms: _90  and  _93
REMARK   38  A    between atoms: _93  and  _94
REMARK   39  A    between atoms: _99  and  _101
REMARK   40  A    between atoms: _101  and  _102
REMARK   41  A    between atoms: _101  and  _104
REMARK   42  A    between atoms: _104  and  _105
REMARK   43  A    between atoms: _110  and  _112
REMARK   44  A    between atoms: _112  and  _113
REMARK   45  A    between atoms: _115  and  _117
REMARK   46  A    between atoms: _117  and  _118
REMARK   47  A    between atoms: _117  and  _120
REMARK   48  A    between atoms: _120  and  _121
REMARK   49  A    between atoms: _127  and  _129
REMARK   50  A    between atoms: _129  and  _130
REMARK   51  A    between atoms: _132  and  _134
REMARK   52  A    between atoms: _134  and  _135
REMARK   53  A    between atoms: _134  and  _137
REMARK   54  A    between atoms: _137  and  _138
REMARK   55  A    between atoms: _138  and  _139
REMARK   56  A    between atoms: _141  and  _143
REMARK   57  A    between atoms: _143  and  _144
REMARK   58  A    between atoms: _143  and  _146
REMARK   59  A    between atoms: _146  and  _147
REMARK   60  A    between atoms: _153  and  _155
REMARK   61  A    between atoms: _155  and  _156
REMARK   62  A    between atoms: _155  and  _158
REMARK   63  A    between atoms: _158  and  _159
REMARK   64  A    between atoms: _162  and  _164
REMARK   65  A    between atoms: _164  and  _165
REMARK   66  A    between atoms: _164  and  _167
REMARK   67  A    between atoms: _167  and  _168
REMARK   68  A    between atoms: _171  and  _173
REMARK   69  A    between atoms: _173  and  _174
REMARK   70  A    between atoms: _173  and  _176
REMARK   71  A    between atoms: _176  and  _177
REMARK   72  A    between atoms: _182  and  _183
REMARK   73  A    between atoms: _185  and  _187
REMARK   74  A    between atoms: _187  and  _188
REMARK   75  A    between atoms: _187  and  _190
REMARK   76  A    between atoms: _190  and  _191
REMARK   77  A    between atoms: _193  and  _195
REMARK   78  A    between atoms: _195  and  _196
REMARK   79  A    between atoms: _199  and  _201
REMARK   80  A    between atoms: _201  and  _202
REMARK   81  A    between atoms: _201  and  _204
REMARK   82  A    between atoms: _204  and  _205
REMARK   83  A    between atoms: _208  and  _210
REMARK   84  A    between atoms: _210  and  _211
REMARK   85  A    between atoms: _210  and  _213
REMARK   86  A    between atoms: _213  and  _214
REMARK   87  A    between atoms: _217  and  _219
REMARK   88  A    between atoms: _219  and  _220
REMARK   89  A    between atoms: _219  and  _222
REMARK   90  A    between atoms: _226  and  _227
REMARK   91  A    between atoms: _232  and  _234
REMARK   92  A    between atoms: _234  and  _235
REMARK   93  A    between atoms: _234  and  _237
REMARK   94  A    between atoms: _237  and  _238
REMARK   95  A    between atoms: _238  and  _239
REMARK   96  A    between atoms: _242  and  _244
REMARK   97  A    between atoms: _244  and  _245
REMARK   98  A    between atoms: _244  and  _247
REMARK   99  A    between atoms: _247  and  _248
REMARK  100  A    between atoms: _251  and  _253
REMARK  101  A    between atoms: _253  and  _254
REMARK  102  A    between atoms: _257  and  _259
REMARK  103  A    between atoms: _259  and  _260
REMARK  104  A    between atoms: _259  and  _262
REMARK  105  A    between atoms: _262  and  _263
REMARK  106  A    between atoms: _265  and  _267
REMARK  107  A    between atoms: _267  and  _268
REMARK  108  A    between atoms: _270  and  _272
REMARK  109  A    between atoms: _272  and  _273
REMARK  110  A    between atoms: _275  and  _277
REMARK  111  A    between atoms: _277  and  _278
REMARK  112  A    between atoms: _282  and  _283
REMARK  113  A    between atoms: _288  and  _290
REMARK  114  A    between atoms: _290  and  _291
REMARK  115  A    between atoms: _290  and  _293
REMARK  116  A    between atoms: _293  and  _294
REMARK  117  A    between atoms: _297  and  _299
REMARK  118  A    between atoms: _299  and  _300
REMARK  119  A    between atoms: _299  and  _302
REMARK  120  A    between atoms: _302  and  _303
REMARK  121  A    between atoms: _305  and  _307
REMARK  122  A    between atoms: _307  and  _308
REMARK  123  A    between atoms: _307  and  _310
REMARK  124  A    between atoms: _310  and  _311
REMARK  125  A    between atoms: _311  and  _312
REMARK  126  A    between atoms: _312  and  _313
REMARK  127  A    between atoms: _322  and  _324
REMARK  128  A    between atoms: _324  and  _325
REMARK  129  A    between atoms: _324  and  _327
REMARK  130  A    between atoms: _327  and  _328
REMARK  131  A    between atoms: _328  and  _329
REMARK  132  A    between atoms: _334  and  _336
REMARK  133  A    between atoms: _336  and  _337
REMARK  134  A    between atoms: _339  and  _341
REMARK  135  A    between atoms: _341  and  _342
REMARK  136  A    between atoms: _341  and  _344
REMARK  137  A    between atoms: _344  and  _345
REMARK  138  A    between atoms: _350  and  _351
REMARK  139  A    between atoms: _353  and  _355
REMARK  140  A    between atoms: _355  and  _356
REMARK  141  A    between atoms: _358  and  _360
REMARK  142  A    between atoms: _360  and  _361
REMARK  143  A    between atoms: _360  and  _363
REMARK  144  A    between atoms: _363  and  _364
REMARK  145  A    between atoms: _367  and  _369
REMARK  146  A    between atoms: _369  and  _370
REMARK  147  A    between atoms: _369  and  _372
REMARK  148  A    between atoms: _372  and  _373
REMARK  149  A    between atoms: _376  and  _378
REMARK  150  A    between atoms: _378  and  _379
REMARK  151  A    between atoms: _378  and  _381
REMARK  152  A    between atoms: _381  and  _382
REMARK  153  A    between atoms: _382  and  _383
REMARK  154  A    between atoms: _386  and  _388
REMARK  155  A    between atoms: _388  and  _389
REMARK  156  A    between atoms: _388  and  _391
REMARK  157  A    between atoms: _391  and  _392
REMARK  158  A    between atoms: _395  and  _397
REMARK  159  A    between atoms: _397  and  _398
REMARK  160  A    between atoms: _397  and  _400
REMARK  161  A    between atoms: _400  and  _401
REMARK  162  A    between atoms: _404  and  _406
REMARK  163  A    between atoms: _406  and  _407
REMARK  164  A    between atoms: _406  and  _409
REMARK  165  A    between atoms: _409  and  _410
REMARK  166  A    between atoms: _412  and  _414
REMARK  167  A    between atoms: _414  and  _415
REMARK  168  A    between atoms: _418  and  _420
REMARK  169  A    between atoms: _420  and  _421
REMARK  170  A    between atoms: _420  and  _423
REMARK  171  A    between atoms: _423  and  _424
REMARK  172  A    between atoms: _427  and  _429
REMARK  173  A    between atoms: _429  and  _430
REMARK  174  A    between atoms: _429  and  _432
REMARK  175  A    between atoms: _432  and  _433
REMARK  176  A    between atoms: _436  and  _438
REMARK  177  A    between atoms: _438  and  _439
REMARK  178  A    between atoms: _438  and  _441
REMARK  179  A    between atoms: _441  and  _442
REMARK  180  A    between atoms: _445  and  _447
REMARK  181  A    between atoms: _447  and  _448
REMARK  182  A    between atoms: _447  and  _450
REMARK  183  A    between atoms: _450  and  _451
REMARK  184  A    between atoms: _454  and  _456
REMARK  185  A    between atoms: _456  and  _457
REMARK  186  A    between atoms: _459  and  _461
REMARK  187  A    between atoms: _461  and  _462
REMARK  188  A    between atoms: _465  and  _467
REMARK  189  A    between atoms: _467  and  _468
REMARK  190  A    between atoms: _467  and  _470
REMARK  191  A    between atoms: _473  and  _475
REMARK  192  A    between atoms: _475  and  _476
REMARK  193  A    between atoms: _478  and  _480
REMARK  194  A    between atoms: _480  and  _481
REMARK  195  A    between atoms: _480  and  _483
REMARK  196  A    between atoms: _486  and  _488
REMARK  197  A    between atoms: _488  and  _489
REMARK  198  A    between atoms: _488  and  _491
REMARK  199  A    between atoms: _491  and  _492
REMARK  200  A    between atoms: _495  and  _497
REMARK  201  A    between atoms: _497  and  _498
REMARK  202  A    between atoms: _497  and  _500
REMARK  203  A    between atoms: _500  and  _501
REMARK  204  A    between atoms: _501  and  _502
REMARK  205  A    between atoms: _504  and  _506
REMARK  206  A    between atoms: _506  and  _507
REMARK  207  A    between atoms: _506  and  _509
REMARK  208  A    between atoms: _509  and  _510
REMARK  209  A    between atoms: _515  and  _516
REMARK  210  A    between atoms: _518  and  _520
REMARK  211  A    between atoms: _520  and  _521
REMARK  212  A    between atoms: _520  and  _523
REMARK  213  A    between atoms: _523  and  _524
REMARK  214  A    between atoms: _527  and  _529
REMARK  215  A    between atoms: _529  and  _530
REMARK  216  A    between atoms: _529  and  _532
REMARK  217  A    between atoms: _532  and  _533
REMARK  218  A    between atoms: _538  and  _540
REMARK  219  A    between atoms: _540  and  _541
REMARK  220  A    between atoms: _540  and  _543
REMARK  221  A    between atoms: _543  and  _544
REMARK  222  A    between atoms: _546  and  _548
REMARK  223  A    between atoms: _548  and  _549
REMARK  224  A    between atoms: _551  and  _553
REMARK  225  A    between atoms: _553  and  _554
REMARK  226  A    between atoms: _553  and  _556
REMARK  227  A    between atoms: _556  and  _557
REMARK  228  A    between atoms: _560  and  _562
REMARK  229  A    between atoms: _562  and  _563
REMARK  230  A    between atoms: _562  and  _565
REMARK  231  A    between atoms: _565  and  _566
REMARK  232  A    between atoms: _569  and  _571
REMARK  233  A    between atoms: _571  and  _572
REMARK  234  A    between atoms: _571  and  _574
REMARK  235  A    between atoms: _574  and  _575
REMARK  236  A    between atoms: _581  and  _583
REMARK  237  A    between atoms: _583  and  _584
REMARK  238  A    between atoms: _583  and  _586
REMARK  239  A    between atoms: _586  and  _587
REMARK  240  A    between atoms: _590  and  _592
REMARK  241  A    between atoms: _592  and  _593
REMARK  242  A    between atoms: _592  and  _595
REMARK  243  A    between atoms: _598  and  _600
REMARK  244  A    between atoms: _600  and  _601
REMARK  245  A    between atoms: _600  and  _603
REMARK  246  A    between atoms: _603  and  _604
REMARK  247  A    between atoms: _607  and  _609
REMARK  248  A    between atoms: _609  and  _610
REMARK  249  A    between atoms: _609  and  _612
REMARK  250  A    between atoms: _612  and  _613
REMARK  251  A    between atoms: _613  and  _614
REMARK  252  A    between atoms: _614  and  _615
REMARK  253  A    between atoms: _624  and  _626
REMARK  254  A    between atoms: _626  and  _627
REMARK  255  A    between atoms: _626  and  _629
REMARK  256  A    between atoms: _629  and  _630
REMARK                            x       y       z     vdW  Elec       q    Type
REMARK                         _______ _______ _______ _____ _____    ______ ____
ROOT
ATOM      1  CA  VAL A   1     -38.079  -3.890  -8.854  0.00  0.00    +0.133 C 
ENDROOT
BRANCH   1   2
ATOM      2  CB  VAL A   1     -37.075  -3.178  -7.928  0.00  0.00    +0.023 C 
ATOM      3  CG2 VAL A   1     -37.723  -1.993  -7.278  0.00  0.00    +0.002 C 
ATOM      4  CG1 VAL A   1     -35.835  -2.774  -8.740  0.00  0.00    +0.002 C 
ENDBRANCH   1   2
BRANCH   1   5
ATOM      5  N   VAL A   1     -38.532  -3.005  -9.922  0.00  0.00    -0.239 NA
ATOM      6  H   VAL A   1     -38.386  -1.979  -9.834  0.00  0.00    +0.142 HD
ENDBRANCH   1   5
BRANCH   1   7
ATOM      7  C   VAL A   1     -39.229  -4.363  -7.987  0.00  0.00    +0.224 C 
ATOM      8  O   VAL A   1     -40.264  -3.725  -7.934  0.00  0.00    -0.287 OA
ENDBRANCH   1   7
TORSDOF 3
REMARK  Name = ../refined-set-2016/3ies/3ies_pocket.pdb
REMARK  256 active torsions:
REMARK  status: ('A' for Active; 'I' for Inactive)
REMARK    1  A    between atoms: _1  and  _3
REMARK    2  A    between atoms: _3  and  _4
REMARK    3  A    between atoms: _3  and  _6
REMARK    4  A    between atoms: _6  and  _7
REMARK    5  A    between atoms: _7  and  _8
REMARK    6  A    between atoms: _10  and  _12
REMARK    7  A    between atoms: _12  and  _13
REMARK    8  A    between atoms: _12  and  _15
REMARK    9  A    between atoms: _15  and  _16
REMARK   10  A    between atoms: _21  and  _23
REMARK   11  A    between atoms: _23  and  _24
REMARK   12  A    between atoms: _23  and  _26
REMARK   13  A    between atoms: _26  and  _27
REMARK   14  A    between atoms: _29  and  _31
REMARK   15  A    between atoms: _31  and  _32
REMARK   16  A    between atoms: _31  and  _34
REMARK   17  A    between atoms: _37  and  _39
REMARK   18  A    between atoms: _39  and  _40
REMARK   19  A    between atoms: _39  and  _42
REMARK   20  A    between atoms: _42  and  _43
REMARK   21  A    between atoms: _43  and  _44
REMARK   22  A    between atoms: _44  and  _45
REMARK   23  A    between atoms: _54  and  _56
REMARK   24  A    between atoms: _56  and  _57
REMARK   25  A    between atoms: _56  and  _59
REMARK   26  A    between atoms: _59  and  _60
REMARK   27  A    between atoms: _65  and  _67
REMARK   28  A    between atoms: _67  and  _68
REMARK   29  A    between atoms: _71  and  _73
REMARK   30  A    between atoms: _73  and  _74
REMARK   31  A    between atoms: _73  and  _76
REMARK   32  A    between atoms: _76  and  _77
REMARK   33  A    between atoms: _83  and  _85
REMARK   34  A    between atoms: _85  and  _86
REMARK   35  A    between atoms: _88  and  _90
REMARK   36  A    between atoms: _90  and  _91
REMARK   37  A    between atoms: _90  and  _93
REMARK   38  A    between atoms: _93  and  _94
REMARK   39  A    between atoms: _99  and  _101
REMARK   40  A    between atoms: _101  and  _102
REMARK   41  A    between atoms: _101  and  _104
REMARK   42  A    between atoms: _104  and  _105
REMARK   43  A    between atoms: _110  and  _112
REMARK   44  A    between atoms: _112  and  _113
REMARK   45  A    between atoms: _115  and  _117
REMARK   46  A    between atoms: _117  and  _118
REMARK   47  A    between atoms: _117  and  _120
REMARK   48  A    between atoms: _120  and  _121
REMARK   49  A    between atoms: _127  and  _129
REMARK   50  A    between atoms: _129  and  _130
REMARK   51  A    between atoms: _132  and  _134
REMARK   52  A    between atoms: _134  and  _135
REMARK   53  A    between atoms: _134  and  _137
REMARK   54  A    between atoms: _137  and  _138
REMARK   55  A    between atoms: _138  and  _139
REMARK   56  A    between atoms: _141  and  _143
REMARK   57  A    between atoms: _143  and  _144
REMARK   58  A    between atoms: _143  and  _146
REMARK   59  A    between atoms: _146  and  _147
REMARK   60  A    between atoms: _153  and  _155
REMARK   61  A    between atoms: _155  and  _156
REMARK   62  A    between atoms: _155  and  _158
REMARK   63  A    between atoms: _158  and  _159
REMARK   64  A    between atoms: _162  and  _164
REMARK   65  A    between atoms: _164  and  _165
REMARK   66  A    between atoms: _164  and  _167
REMARK   67  A    between atoms: _167  and  _168
REMARK   68  A    between atoms: _171  and  _173
REMARK   69  A    between atoms: _173  and  _174
REMARK   70  A    between atoms: _173  and  _176
REMARK   71  A    between atoms: _176  and  _177
REMARK   72  A    between atoms: _182  and  _183
REMARK   73  A    between atoms: _185  and  _187
REMARK   74  A    between atoms: _187  and  _188
REMARK   75  A    between atoms: _187  and  _190
REMARK   76  A    between atoms: _190  and  _191
REMARK   77  A    between atoms: _193  and  _195
REMARK   78  A    between atoms: _195  and  _196
REMARK   79  A    between atoms: _199  and  _201
REMARK   80  A    between atoms: _201  and  _202
REMARK   81  A    between atoms: _201  and  _204
REMARK   82  A    between atoms: _204  and  _205
REMARK   83  A    between atoms: _208  and  _210
REMARK   84  A    between atoms: _210  and  _211
REMARK   85  A    between atoms: _210  and  _213
REMARK   86  A    between atoms: _213  and  _214
REMARK   87  A    between atoms: _217  and  _219
REMARK   88  A    between atoms: _219  and  _220
REMARK   89  A    between atoms: _219  and  _222
REMARK   90  A    between atoms: _226  and  _227
REMARK   91  A    between atoms: _232  and  _234
REMARK   92  A    between atoms: _234  and  _235
REMARK   93  A    between atoms: _234  and  _237
REMARK   94  A    between atoms: _237  and  _238
REMARK   95  A    between atoms: _238  and  _239
REMARK   96  A    between atoms: _242  and  _244
REMARK   97  A    between atoms: _244  and  _245
REMARK   98  A    between atoms: _244  and  _247
REMARK   99  A    between atoms: _247  and  _248
REMARK  100  A    between atoms: _251  and  _253
REMARK  101  A    between atoms: _253  and  _254
REMARK  102  A    between atoms: _257  and  _259
REMARK  103  A    between atoms: _259  and  _260
REMARK  104  A    between atoms: _259  and  _262
REMARK  105  A    between atoms: _262  and  _263
REMARK  106  A    between atoms: _265  and  _267
REMARK  107  A    between atoms: _267  and  _268
REMARK  108  A    between atoms: _270  and  _272
REMARK  109  A    between atoms: _272  and  _273
REMARK  110  A    between atoms: _275  and  _277
REMARK  111  A    between atoms: _277  and  _278
REMARK  112  A    between atoms: _282  and  _283
REMARK  113  A    between atoms: _288  and  _290
REMARK  114  A    between atoms: _290  and  _291
REMARK  115  A    between atoms: _290  and  _293
REMARK  116  A    between atoms: _293  and  _294
REMARK  117  A    between atoms: _297  and  _299
REMARK  118  A    between atoms: _299  and  _300
REMARK  119  A    between atoms: _299  and  _302
REMARK  120  A    between atoms: _302  and  _303
REMARK  121  A    between atoms: _305  and  _307
REMARK  122  A    between atoms: _307  and  _308
REMARK  123  A    between atoms: _307  and  _310
REMARK  124  A    between atoms: _310  and  _311
REMARK  125  A    between atoms: _311  and  _312
REMARK  126  A    between atoms: _312  and  _313
REMARK  127  A    between atoms: _322  and  _324
REMARK  128  A    between atoms: _324  and  _325
REMARK  129  A    between atoms: _324  and  _327
REMARK  130  A    between atoms: _327  and  _328
REMARK  131  A    between atoms: _328  and  _329
REMARK  132  A    between atoms: _334  and  _336
REMARK  133  A    between atoms: _336  and  _337
REMARK  134  A    between atoms: _339  and  _341
REMARK  135  A    between atoms: _341  and  _342
REMARK  136  A    between atoms: _341  and  _344
REMARK  137  A    between atoms: _344  and  _345
REMARK  138  A    between atoms: _350  and  _351
REMARK  139  A    between atoms: _353  and  _355
REMARK  140  A    between atoms: _355  and  _356
REMARK  141  A    between atoms: _358  and  _360
REMARK  142  A    between atoms: _360  and  _361
REMARK  143  A    between atoms: _360  and  _363
REMARK  144  A    between atoms: _363  and  _364
REMARK  145  A    between atoms: _367  and  _369
REMARK  146  A    between atoms: _369  and  _370
REMARK  147  A    between atoms: _369  and  _372
REMARK  148  A    between atoms: _372  and  _373
REMARK  149  A    between atoms: _376  and  _378
REMARK  150  A    between atoms: _378  and  _379
REMARK  151  A    between atoms: _378  and  _381
REMARK  152  A    between atoms: _381  and  _382
REMARK  153  A    between atoms: _382  and  _383
REMARK  154  A    between atoms: _386  and  _388
REMARK  155  A    between atoms: _388  and  _389
REMARK  156  A    between atoms: _388  and  _391
REMARK  157  A    between atoms: _391  and  _392
REMARK  158  A    between atoms: _395  and  _397
REMARK  159  A    between atoms: _397  and  _398
REMARK  160  A    between atoms: _397  and  _400
REMARK  161  A    between atoms: _400  and  _401
REMARK  162  A    between atoms: _404  and  _406
REMARK  163  A    between atoms: _406  and  _407
REMARK  164  A    between atoms: _406  and  _409
REMARK  165  A    between atoms: _409  and  _410
REMARK  166  A    between atoms: _412  and  _414
REMARK  167  A    between atoms: _414  and  _415
REMARK  168  A    between atoms: _418  and  _420
REMARK  169  A    between atoms: _420  and  _421
REMARK  170  A    between atoms: _420  and  _423
REMARK  171  A    between atoms: _423  and  _424
REMARK  172  A    between atoms: _427  and  _429
REMARK  173  A    between atoms: _429  and  _430
REMARK  174  A    between atoms: _429  and  _432
REMARK  175  A    between atoms: _432  and  _433
REMARK  176  A    between atoms: _436  and  _438
REMARK  177  A    between atoms: _438  and  _439
REMARK  178  A    between atoms: _438  and  _441
REMARK  179  A    between atoms: _441  and  _442
REMARK  180  A    between atoms: _445  and  _447
REMARK  181  A    between atoms: _447  and  _448
REMARK  182  A    between atoms: _447  and  _450
REMARK  183  A    between atoms: _450  and  _451
REMARK  184  A    between atoms: _454  and  _456
REMARK  185  A    between atoms: _456  and  _457
REMARK  186  A    between atoms: _459  and  _461
REMARK  187  A    between atoms: _461  and  _462
REMARK  188  A    between atoms: _465  and  _467
REMARK  189  A    between atoms: _467  and  _468
REMARK  190  A    between atoms: _467  and  _470
REMARK  191  A    between atoms: _473  and  _475
REMARK  192  A    between atoms: _475  and  _476
REMARK  193  A    between atoms: _478  and  _480
REMARK  194  A    between atoms: _480  and  _481
REMARK  195  A    between atoms: _480  and  _483
REMARK  196  A    between atoms: _486  and  _488
REMARK  197  A    between atoms: _488  and  _489
REMARK  198  A    between atoms: _488  and  _491
REMARK  199  A    between atoms: _491  and  _492
REMARK  200  A    between atoms: _495  and  _497
REMARK  201  A    between atoms: _497  and  _498
REMARK  202  A    between atoms: _497  and  _500
REMARK  203  A    between atoms: _500  and  _501
REMARK  204  A    between atoms: _501  and  _502
REMARK  205  A    between atoms: _504  and  _506
REMARK  206  A    between atoms: _506  and  _507
REMARK  207  A    between atoms: _506  and  _509
REMARK  208  A    between atoms: _509  and  _510
REMARK  209  A    between atoms: _515  and  _516
REMARK  210  A    between atoms: _518  and  _520
REMARK  211  A    between atoms: _520  and  _521
REMARK  212  A    between atoms: _520  and  _523
REMARK  213  A    between atoms: _523  and  _524
REMARK  214  A    between atoms: _527  and  _529
REMARK  215  A    between atoms: _529  and  _530
REMARK  216  A    between atoms: _529  and  _532
REMARK  217  A    between atoms: _532  and  _533
REMARK  218  A    between atoms: _538  and  _540
REMARK  219  A    between atoms: _540  and  _541
REMARK  220  A    between atoms: _540  and  _543
REMARK  221  A    between atoms: _543  and  _544
REMARK  222  A    between atoms: _546  and  _548
REMARK  223  A    between atoms: _548  and  _549
REMARK  224  A    between atoms: _551  and  _553
REMARK  225  A    between atoms: _553  and  _554
REMARK  226  A    between atoms: _553  and  _556
REMARK  227  A    between atoms: _556  and  _557
REMARK  228  A    between atoms: _560  and  _562
REMARK  229  A    between atoms: _562  and  _563
REMARK  230  A    between atoms: _562  and  _565
REMARK  231  A    between atoms: _565  and  _566
REMARK  232  A    between atoms: _569  and  _571
REMARK  233  A    between atoms: _571  and  _572
REMARK  234  A    between atoms: _571  and  _574
REMARK  235  A    between atoms: _574  and  _575
REMARK  236  A    between atoms: _581  and  _583
REMARK  237  A    between atoms: _583  and  _584
REMARK  238  A    between atoms: _583  and  _586
REMARK  239  A    between atoms: _586  and  _587
REMARK  240  A    between atoms: _590  and  _592
REMARK  241  A    between atoms: _592  and  _593
REMARK  242  A    between atoms: _592  and  _595
REMARK  243  A    between atoms: _598  and  _600
REMARK  244  A    between atoms: _600  and  _601
REMARK  245  A    between atoms: _600  and  _603
REMARK  246  A    between atoms: _603  and  _604
REMARK  247  A    between atoms: _607  and  _609
REMARK  248  A    between atoms: _609  and  _610
REMARK  249  A    between atoms: _609  and  _612
REMARK  250  A    between atoms: _612  and  _613
REMARK  251  A    between atoms: _613  and  _614
REMARK  252  A    between atoms: _614  and  _615
REMARK  253  A    between atoms: _624  and  _626
REMARK  254  A    between atoms: _626  and  _627
REMARK  255  A    between atoms: _626  and  _629
REMARK  256  A    between atoms: _629  and  _630
REMARK                            x       y       z     vdW  Elec       q    Type
REMARK                         _______ _______ _______ _____ _____    ______ ____
ROOT
ATOM      1  CA  LEU A   1     -42.111   8.363 -15.590  0.00  0.00    +0.133 C 
ENDROOT
BRANCH   1   2
ATOM      2  N   LEU A   1     -42.227   9.546 -16.436  0.00  0.00    -0.239 NA
ATOM      3  H   LEU A   1     -41.360  10.051 -16.709  0.00  0.00    +0.142 HD
ENDBRANCH   1   2
BRANCH   1   4
ATOM      4  C   LEU A   1     -42.497   8.713 -14.148  0.00  0.00    +0.224 C 
ATOM      5  O   LEU A   1     -42.020   9.683 -13.589  0.00  0.00    -0.287 OA
ENDBRANCH   1   4
BRANCH   1   6
ATOM      6  CB  LEU A   1     -40.656   7.848 -15.643  0.00  0.00    +0.025 C 
BRANCH   6   7
ATOM      7  CG  LEU A   1     -40.303   6.610 -14.825  0.00  0.00    +0.002 C 
ATOM      8  CD2 LEU A   1     -38.814   6.268 -15.011  0.00  0.00    +0.000 C 
ATOM      9  CD1 LEU A   1     -41.177   5.429 -15.181  0.00  0.00    +0.000 C 
ENDBRANCH   6   7
ENDBRANCH   1   6
TORSDOF 4
REMARK  Name = ../refined-set-2016/3ies/3ies_pocket.pdb
REMARK  256 active torsions:
REMARK  status: ('A' for Active; 'I' for Inactive)
REMARK    1  A    between atoms: _1  and  _3
REMARK    2  A    between atoms: _3  and  _4
REMARK    3  A    between atoms: _3  and  _6
REMARK    4  A    between atoms: _6  and  _7
REMARK    5  A    between atoms: _7  and  _8
REMARK    6  A    between atoms: _10  and  _12
REMARK    7  A    between atoms: _12  and  _13
REMARK    8  A    between atoms: _12  and  _15
REMARK    9  A    between atoms: _15  and  _16
REMARK   10  A    between atoms: _21  and  _23
REMARK   11  A    between atoms: _23  and  _24
REMARK   12  A    between atoms: _23  and  _26
REMARK   13  A    between atoms: _26  and  _27
REMARK   14  A    between atoms: _29  and  _31
REMARK   15  A    between atoms: _31  and  _32
REMARK   16  A    between atoms: _31  and  _34
REMARK   17  A    between atoms: _37  and  _39
REMARK   18  A    between atoms: _39  and  _40
REMARK   19  A    between atoms: _39  and  _42
REMARK   20  A    between atoms: _42  and  _43
REMARK   21  A    between atoms: _43  and  _44
REMARK   22  A    between atoms: _44  and  _45
REMARK   23  A    between atoms: _54  and  _56
REMARK   24  A    between atoms: _56  and  _57
REMARK   25  A    between atoms: _56  and  _59
REMARK   26  A    between atoms: _59  and  _60
REMARK   27  A    between atoms: _65  and  _67
REMARK   28  A    between atoms: _67  and  _68
REMARK   29  A    between atoms: _71  and  _73
REMARK   30  A    between atoms: _73  and  _74
REMARK   31  A    between atoms: _73  and  _76
REMARK   32  A    between atoms: _76  and  _77
REMARK   33  A    between atoms: _83  and  _85
REMARK   34  A    between atoms: _85  and  _86
REMARK   35  A    between atoms: _88  and  _90
REMARK   36  A    between atoms: _90  and  _91
REMARK   37  A    between atoms: _90  and  _93
REMARK   38  A    between atoms: _93  and  _94
REMARK   39  A    between atoms: _99  and  _101
REMARK   40  A    between atoms: _101  and  _102
REMARK   41  A    between atoms: _101  and  _104
REMARK   42  A    between atoms: _104  and  _105
REMARK   43  A    between atoms: _110  and  _112
REMARK   44  A    between atoms: _112  and  _113
REMARK   45  A    between atoms: _115  and  _117
REMARK   46  A    between atoms: _117  and  _118
REMARK   47  A    between atoms: _117  and  _120
REMARK   48  A    between atoms: _120  and  _121
REMARK   49  A    between atoms: _127  and  _129
REMARK   50  A    between atoms: _129  and  _130
REMARK   51  A    between atoms: _132  and  _134
REMARK   52  A    between atoms: _134  and  _135
REMARK   53  A    between atoms: _134  and  _137
REMARK   54  A    between atoms: _137  and  _138
REMARK   55  A    between atoms: _138  and  _139
REMARK   56  A    between atoms: _141  and  _143
REMARK   57  A    between atoms: _143  and  _144
REMARK   58  A    between atoms: _143  and  _146
REMARK   59  A    between atoms: _146  and  _147
REMARK   60  A    between atoms: _153  and  _155
REMARK   61  A    between atoms: _155  and  _156
REMARK   62  A    between atoms: _155  and  _158
REMARK   63  A    between atoms: _158  and  _159
REMARK   64  A    between atoms: _162  and  _164
REMARK   65  A    between atoms: _164  and  _165
REMARK   66  A    between atoms: _164  and  _167
REMARK   67  A    between atoms: _167  and  _168
REMARK   68  A    between atoms: _171  and  _173
REMARK   69  A    between atoms: _173  and  _174
REMARK   70  A    between atoms: _173  and  _176
REMARK   71  A    between atoms: _176  and  _177
REMARK   72  A    between atoms: _182  and  _183
REMARK   73  A    between atoms: _185  and  _187
REMARK   74  A    between atoms: _187  and  _188
REMARK   75  A    between atoms: _187  and  _190
REMARK   76  A    between atoms: _190  and  _191
REMARK   77  A    between atoms: _193  and  _195
REMARK   78  A    between atoms: _195  and  _196
REMARK   79  A    between atoms: _199  and  _201
REMARK   80  A    between atoms: _201  and  _202
REMARK   81  A    between atoms: _201  and  _204
REMARK   82  A    between atoms: _204  and  _205
REMARK   83  A    between atoms: _208  and  _210
REMARK   84  A    between atoms: _210  and  _211
REMARK   85  A    between atoms: _210  and  _213
REMARK   86  A    between atoms: _213  and  _214
REMARK   87  A    between atoms: _217  and  _219
REMARK   88  A    between atoms: _219  and  _220
REMARK   89  A    between atoms: _219  and  _222
REMARK   90  A    between atoms: _226  and  _227
REMARK   91  A    between atoms: _232  and  _234
REMARK   92  A    between atoms: _234  and  _235
REMARK   93  A    between atoms: _234  and  _237
REMARK   94  A    between atoms: _237  and  _238
REMARK   95  A    between atoms: _238  and  _239
REMARK   96  A    between atoms: _242  and  _244
REMARK   97  A    between atoms: _244  and  _245
REMARK   98  A    between atoms: _244  and  _247
REMARK   99  A    between atoms: _247  and  _248
REMARK  100  A    between atoms: _251  and  _253
REMARK  101  A    between atoms: _253  and  _254
REMARK  102  A    between atoms: _257  and  _259
REMARK  103  A    between atoms: _259  and  _260
REMARK  104  A    between atoms: _259  and  _262
REMARK  105  A    between atoms: _262  and  _263
REMARK  106  A    between atoms: _265  and  _267
REMARK  107  A    between atoms: _267  and  _268
REMARK  108  A    between atoms: _270  and  _272
REMARK  109  A    between atoms: _272  and  _273
REMARK  110  A    between atoms: _275  and  _277
REMARK  111  A    between atoms: _277  and  _278
REMARK  112  A    between atoms: _282  and  _283
REMARK  113  A    between atoms: _288  and  _290
REMARK  114  A    between atoms: _290  and  _291
REMARK  115  A    between atoms: _290  and  _293
REMARK  116  A    between atoms: _293  and  _294
REMARK  117  A    between atoms: _297  and  _299
REMARK  118  A    between atoms: _299  and  _300
REMARK  119  A    between atoms: _299  and  _302
REMARK  120  A    between atoms: _302  and  _303
REMARK  121  A    between atoms: _305  and  _307
REMARK  122  A    between atoms: _307  and  _308
REMARK  123  A    between atoms: _307  and  _310
REMARK  124  A    between atoms: _310  and  _311
REMARK  125  A    between atoms: _311  and  _312
REMARK  126  A    between atoms: _312  and  _313
REMARK  127  A    between atoms: _322  and  _324
REMARK  128  A    between atoms: _324  and  _325
REMARK  129  A    between atoms: _324  and  _327
REMARK  130  A    between atoms: _327  and  _328
REMARK  131  A    between atoms: _328  and  _329
REMARK  132  A    between atoms: _334  and  _336
REMARK  133  A    between atoms: _336  and  _337
REMARK  134  A    between atoms: _339  and  _341
REMARK  135  A    between atoms: _341  and  _342
REMARK  136  A    between atoms: _341  and  _344
REMARK  137  A    between atoms: _344  and  _345
REMARK  138  A    between atoms: _350  and  _351
REMARK  139  A    between atoms: _353  and  _355
REMARK  140  A    between atoms: _355  and  _356
REMARK  141  A    between atoms: _358  and  _360
REMARK  142  A    between atoms: _360  and  _361
REMARK  143  A    between atoms: _360  and  _363
REMARK  144  A    between atoms: _363  and  _364
REMARK  145  A    between atoms: _367  and  _369
REMARK  146  A    between atoms: _369  and  _370
REMARK  147  A    between atoms: _369  and  _372
REMARK  148  A    between atoms: _372  and  _373
REMARK  149  A    between atoms: _376  and  _378
REMARK  150  A    between atoms: _378  and  _379
REMARK  151  A    between atoms: _378  and  _381
REMARK  152  A    between atoms: _381  and  _382
REMARK  153  A    between atoms: _382  and  _383
REMARK  154  A    between atoms: _386  and  _388
REMARK  155  A    between atoms: _388  and  _389
REMARK  156  A    between atoms: _388  and  _391
REMARK  157  A    between atoms: _391  and  _392
REMARK  158  A    between atoms: _395  and  _397
REMARK  159  A    between atoms: _397  and  _398
REMARK  160  A    between atoms: _397  and  _400
REMARK  161  A    between atoms: _400  and  _401
REMARK  162  A    between atoms: _404  and  _406
REMARK  163  A    between atoms: _406  and  _407
REMARK  164  A    between atoms: _406  and  _409
REMARK  165  A    between atoms: _409  and  _410
REMARK  166  A    between atoms: _412  and  _414
REMARK  167  A    between atoms: _414  and  _415
REMARK  168  A    between atoms: _418  and  _420
REMARK  169  A    between atoms: _420  and  _421
REMARK  170  A    between atoms: _420  and  _423
REMARK  171  A    between atoms: _423  and  _424
REMARK  172  A    between atoms: _427  and  _429
REMARK  173  A    between atoms: _429  and  _430
REMARK  174  A    between atoms: _429  and  _432
REMARK  175  A    between atoms: _432  and  _433
REMARK  176  A    between atoms: _436  and  _438
REMARK  177  A    between atoms: _438  and  _439
REMARK  178  A    between atoms: _438  and  _441
REMARK  179  A    between atoms: _441  and  _442
REMARK  180  A    between atoms: _445  and  _447
REMARK  181  A    between atoms: _447  and  _448
REMARK  182  A    between atoms: _447  and  _450
REMARK  183  A    between atoms: _450  and  _451
REMARK  184  A    between atoms: _454  and  _456
REMARK  185  A    between atoms: _456  and  _457
REMARK  186  A    between atoms: _459  and  _461
REMARK  187  A    between atoms: _461  and  _462
REMARK  188  A    between atoms: _465  and  _467
REMARK  189  A    between atoms: _467  and  _468
REMARK  190  A    between atoms: _467  and  _470
REMARK  191  A    between atoms: _473  and  _475
REMARK  192  A    between atoms: _475  and  _476
REMARK  193  A    between atoms: _478  and  _480
REMARK  194  A    between atoms: _480  and  _481
REMARK  195  A    between atoms: _480  and  _483
REMARK  196  A    between atoms: _486  and  _488
REMARK  197  A    between atoms: _488  and  _489
REMARK  198  A    between atoms: _488  and  _491
REMARK  199  A    between atoms: _491  and  _492
REMARK  200  A    between atoms: _495  and  _497
REMARK  201  A    between atoms: _497  and  _498
REMARK  202  A    between atoms: _497  and  _500
REMARK  203  A    between atoms: _500  and  _501
REMARK  204  A    between atoms: _501  and  _502
REMARK  205  A    between atoms: _504  and  _506
REMARK  206  A    between atoms: _506  and  _507
REMARK  207  A    between atoms: _506  and  _509
REMARK  208  A    between atoms: _509  and  _510
REMARK  209  A    between atoms: _515  and  _516
REMARK  210  A    between atoms: _518  and  _520
REMARK  211  A    between atoms: _520  and  _521
REMARK  212  A    between atoms: _520  and  _523
REMARK  213  A    between atoms: _523  and  _524
REMARK  214  A    between atoms: _527  and  _529
REMARK  215  A    between atoms: _529  and  _530
REMARK  216  A    between atoms: _529  and  _532
REMARK  217  A    between atoms: _532  and  _533
REMARK  218  A    between atoms: _538  and  _540
REMARK  219  A    between atoms: _540  and  _541
REMARK  220  A    between atoms: _540  and  _543
REMARK  221  A    between atoms: _543  and  _544
REMARK  222  A    between atoms: _546  and  _548
REMARK  223  A    between atoms: _548  and  _549
REMARK  224  A    between atoms: _551  and  _553
REMARK  225  A    between atoms: _553  and  _554
REMARK  226  A    between atoms: _553  and  _556
REMARK  227  A    between atoms: _556  and  _557
REMARK  228  A    between atoms: _560  and  _562
REMARK  229  A    between atoms: _562  and  _563
REMARK  230  A    between atoms: _562  and  _565
REMARK  231  A    between atoms: _565  and  _566
REMARK  232  A    between atoms: _569  and  _571
REMARK  233  A    between atoms: _571  and  _572
REMARK  234  A    between atoms: _571  and  _574
REMARK  235  A    between atoms: _574  and  _575
REMARK  236  A    between atoms: _581  and  _583
REMARK  237  A    between atoms: _583  and  _584
REMARK  238  A    between atoms: _583  and  _586
REMARK  239  A    between atoms: _586  and  _587
REMARK  240  A    between atoms: _590  and  _592
REMARK  241  A    between atoms: _592  and  _593
REMARK  242  A    between atoms: _592  and  _595
REMARK  243  A    between atoms: _598  and  _600
REMARK  244  A    between atoms: _600  and  _601
REMARK  245  A    between atoms: _600  and  _603
REMARK  246  A    between atoms: _603  and  _604
REMARK  247  A    between atoms: _607  and  _609
REMARK  248  A    between atoms: _609  and  _610
REMARK  249  A    between atoms: _609  and  _612
REMARK  250  A    between atoms: _612  and  _613
REMARK  251  A    between atoms: _613  and  _614
REMARK  252  A    between atoms: _614  and  _615
REMARK  253  A    between atoms: _624  and  _626
REMARK  254  A    between atoms: _626  and  _627
REMARK  255  A    between atoms: _626  and  _629
REMARK  256  A    between atoms: _629  and  _630
REMARK                            x       y       z     vdW  Elec       q    Type
REMARK                         _______ _______ _______ _____ _____    ______ ____
ROOT
ATOM      1  CA  MET A   1     -38.453   3.201  -0.921  0.00  0.00    +0.134 C 
ENDROOT
BRANCH   1   2
ATOM      2  N   MET A   1     -39.759   2.579  -1.065  0.00  0.00    -0.239 NA
ATOM      3  H   MET A   1     -40.156   2.431  -2.015  0.00  0.00    +0.142 HD
ENDBRANCH   1   2
BRANCH   1   4
ATOM      4  C   MET A   1     -38.540   4.682  -1.189  0.00  0.00    +0.224 C 
ATOM      5  O   MET A   1     -37.542   5.409  -1.091  0.00  0.00    -0.287 OA
ENDBRANCH   1   4
BRANCH   1   6
ATOM      6  CB  MET A   1     -37.422   2.543  -1.851  0.00  0.00    +0.037 C 
BRANCH   6   7
ATOM      7  CG  MET A   1     -37.027   1.142  -1.471  0.00  0.00    +0.059 C 
BRANCH   7   8
ATOM      8  SD  MET A   1     -35.443   0.634  -2.240  0.00  0.00    -0.139 S 
ATOM      9  CE  MET A   1     -35.696   1.184  -3.922  0.00  0.00    +0.069 C 
ENDBRANCH   7   8
ENDBRANCH   6   7
ENDBRANCH   1   6
TORSDOF 5
REMARK  Name = ../refined-set-2016/3ies/3ies_pocket.pdb
REMARK  256 active torsions:
REMARK  status: ('A' for Active; 'I' for Inactive)
REMARK    1  A    between atoms: _1  and  _3
REMARK    2  A    between atoms: _3  and  _4
REMARK    3  A    between atoms: _3  and  _6
REMARK    4  A    between atoms: _6  and  _7
REMARK    5  A    between atoms: _7  and  _8
REMARK    6  A    between atoms: _10  and  _12
REMARK    7  A    between atoms: _12  and  _13
REMARK    8  A    between atoms: _12  and  _15
REMARK    9  A    between atoms: _15  and  _16
REMARK   10  A    between atoms: _21  and  _23
REMARK   11  A    between atoms: _23  and  _24
REMARK   12  A    between atoms: _23  and  _26
REMARK   13  A    between atoms: _26  and  _27
REMARK   14  A    between atoms: _29  and  _31
REMARK   15  A    between atoms: _31  and  _32
REMARK   16  A    between atoms: _31  and  _34
REMARK   17  A    between atoms: _37  and  _39
REMARK   18  A    between atoms: _39  and  _40
REMARK   19  A    between atoms: _39  and  _42
REMARK   20  A    between atoms: _42  and  _43
REMARK   21  A    between atoms: _43  and  _44
REMARK   22  A    between atoms: _44  and  _45
REMARK   23  A    between atoms: _54  and  _56
REMARK   24  A    between atoms: _56  and  _57
REMARK   25  A    between atoms: _56  and  _59
REMARK   26  A    between atoms: _59  and  _60
REMARK   27  A    between atoms: _65  and  _67
REMARK   28  A    between atoms: _67  and  _68
REMARK   29  A    between atoms: _71  and  _73
REMARK   30  A    between atoms: _73  and  _74
REMARK   31  A    between atoms: _73  and  _76
REMARK   32  A    between atoms: _76  and  _77
REMARK   33  A    between atoms: _83  and  _85
REMARK   34  A    between atoms: _85  and  _86
REMARK   35  A    between atoms: _88  and  _90
REMARK   36  A    between atoms: _90  and  _91
REMARK   37  A    between atoms: _90  and  _93
REMARK   38  A    between atoms: _93  and  _94
REMARK   39  A    between atoms: _99  and  _101
REMARK   40  A    between atoms: _101  and  _102
REMARK   41  A    between atoms: _101  and  _104
REMARK   42  A    between atoms: _104  and  _105
REMARK   43  A    between atoms: _110  and  _112
REMARK   44  A    between atoms: _112  and  _113
REMARK   45  A    between atoms: _115  and  _117
REMARK   46  A    between atoms: _117  and  _118
REMARK   47  A    between atoms: _117  and  _120
REMARK   48  A    between atoms: _120  and  _121
REMARK   49  A    between atoms: _127  and  _129
REMARK   50  A    between atoms: _129  and  _130
REMARK   51  A    between atoms: _132  and  _134
REMARK   52  A    between atoms: _134  and  _135
REMARK   53  A    between atoms: _134  and  _137
REMARK   54  A    between atoms: _137  and  _138
REMARK   55  A    between atoms: _138  and  _139
REMARK   56  A    between atoms: _141  and  _143
REMARK   57  A    between atoms: _143  and  _144
REMARK   58  A    between atoms: _143  and  _146
REMARK   59  A    between atoms: _146  and  _147
REMARK   60  A    between atoms: _153  and  _155
REMARK   61  A    between atoms: _155  and  _156
REMARK   62  A    between atoms: _155  and  _158
REMARK   63  A    between atoms: _158  and  _159
REMARK   64  A    between atoms: _162  and  _164
REMARK   65  A    between atoms: _164  and  _165
REMARK   66  A    between atoms: _164  and  _167
REMARK   67  A    between atoms: _167  and  _168
REMARK   68  A    between atoms: _171  and  _173
REMARK   69  A    between atoms: _173  and  _174
REMARK   70  A    between atoms: _173  and  _176
REMARK   71  A    between atoms: _176  and  _177
REMARK   72  A    between atoms: _182  and  _183
REMARK   73  A    between atoms: _185  and  _187
REMARK   74  A    between atoms: _187  and  _188
REMARK   75  A    between atoms: _187  and  _190
REMARK   76  A    between atoms: _190  and  _191
REMARK   77  A    between atoms: _193  and  _195
REMARK   78  A    between atoms: _195  and  _196
REMARK   79  A    between atoms: _199  and  _201
REMARK   80  A    between atoms: _201  and  _202
REMARK   81  A    between atoms: _201  and  _204
REMARK   82  A    between atoms: _204  and  _205
REMARK   83  A    between atoms: _208  and  _210
REMARK   84  A    between atoms: _210  and  _211
REMARK   85  A    between atoms: _210  and  _213
REMARK   86  A    between atoms: _213  and  _214
REMARK   87  A    between atoms: _217  and  _219
REMARK   88  A    between atoms: _219  and  _220
REMARK   89  A    between atoms: _219  and  _222
REMARK   90  A    between atoms: _226  and  _227
REMARK   91  A    between atoms: _232  and  _234
REMARK   92  A    between atoms: _234  and  _235
REMARK   93  A    between atoms: _234  and  _237
REMARK   94  A    between atoms: _237  and  _238
REMARK   95  A    between atoms: _238  and  _239
REMARK   96  A    between atoms: _242  and  _244
REMARK   97  A    between atoms: _244  and  _245
REMARK   98  A    between atoms: _244  and  _247
REMARK   99  A    between atoms: _247  and  _248
REMARK  100  A    between atoms: _251  and  _253
REMARK  101  A    between atoms: _253  and  _254
REMARK  102  A    between atoms: _257  and  _259
REMARK  103  A    between atoms: _259  and  _260
REMARK  104  A    between atoms: _259  and  _262
REMARK  105  A    between atoms: _262  and  _263
REMARK  106  A    between atoms: _265  and  _267
REMARK  107  A    between atoms: _267  and  _268
REMARK  108  A    between atoms: _270  and  _272
REMARK  109  A    between atoms: _272  and  _273
REMARK  110  A    between atoms: _275  and  _277
REMARK  111  A    between atoms: _277  and  _278
REMARK  112  A    between atoms: _282  and  _283
REMARK  113  A    between atoms: _288  and  _290
REMARK  114  A    between atoms: _290  and  _291
REMARK  115  A    between atoms: _290  and  _293
REMARK  116  A    between atoms: _293  and  _294
REMARK  117  A    between atoms: _297  and  _299
REMARK  118  A    between atoms: _299  and  _300
REMARK  119  A    between atoms: _299  and  _302
REMARK  120  A    between atoms: _302  and  _303
REMARK  121  A    between atoms: _305  and  _307
REMARK  122  A    between atoms: _307  and  _308
REMARK  123  A    between atoms: _307  and  _310
REMARK  124  A    between atoms: _310  and  _311
REMARK  125  A    between atoms: _311  and  _312
REMARK  126  A    between atoms: _312  and  _313
REMARK  127  A    between atoms: _322  and  _324
REMARK  128  A    between atoms: _324  and  _325
REMARK  129  A    between atoms: _324  and  _327
REMARK  130  A    between atoms: _327  and  _328
REMARK  131  A    between atoms: _328  and  _329
REMARK  132  A    between atoms: _334  and  _336
REMARK  133  A    between atoms: _336  and  _337
REMARK  134  A    between atoms: _339  and  _341
REMARK  135  A    between atoms: _341  and  _342
REMARK  136  A    between atoms: _341  and  _344
REMARK  137  A    between atoms: _344  and  _345
REMARK  138  A    between atoms: _350  and  _351
REMARK  139  A    between atoms: _353  and  _355
REMARK  140  A    between atoms: _355  and  _356
REMARK  141  A    between atoms: _358  and  _360
REMARK  142  A    between atoms: _360  and  _361
REMARK  143  A    between atoms: _360  and  _363
REMARK  144  A    between atoms: _363  and  _364
REMARK  145  A    between atoms: _367  and  _369
REMARK  146  A    between atoms: _369  and  _370
REMARK  147  A    between atoms: _369  and  _372
REMARK  148  A    between atoms: _372  and  _373
REMARK  149  A    between atoms: _376  and  _378
REMARK  150  A    between atoms: _378  and  _379
REMARK  151  A    between atoms: _378  and  _381
REMARK  152  A    between atoms: _381  and  _382
REMARK  153  A    between atoms: _382  and  _383
REMARK  154  A    between atoms: _386  and  _388
REMARK  155  A    between atoms: _388  and  _389
REMARK  156  A    between atoms: _388  and  _391
REMARK  157  A    between atoms: _391  and  _392
REMARK  158  A    between atoms: _395  and  _397
REMARK  159  A    between atoms: _397  and  _398
REMARK  160  A    between atoms: _397  and  _400
REMARK  161  A    between atoms: _400  and  _401
REMARK  162  A    between atoms: _404  and  _406
REMARK  163  A    between atoms: _406  and  _407
REMARK  164  A    between atoms: _406  and  _409
REMARK  165  A    between atoms: _409  and  _410
REMARK  166  A    between atoms: _412  and  _414
REMARK  167  A    between atoms: _414  and  _415
REMARK  168  A    between atoms: _418  and  _420
REMARK  169  A    between atoms: _420  and  _421
REMARK  170  A    between atoms: _420  and  _423
REMARK  171  A    between atoms: _423  and  _424
REMARK  172  A    between atoms: _427  and  _429
REMARK  173  A    between atoms: _429  and  _430
REMARK  174  A    between atoms: _429  and  _432
REMARK  175  A    between atoms: _432  and  _433
REMARK  176  A    between atoms: _436  and  _438
REMARK  177  A    between atoms: _438  and  _439
REMARK  178  A    between atoms: _438  and  _441
REMARK  179  A    between atoms: _441  and  _442
REMARK  180  A    between atoms: _445  and  _447
REMARK  181  A    between atoms: _447  and  _448
REMARK  182  A    between atoms: _447  and  _450
REMARK  183  A    between atoms: _450  and  _451
REMARK  184  A    between atoms: _454  and  _456
REMARK  185  A    between atoms: _456  and  _457
REMARK  186  A    between atoms: _459  and  _461
REMARK  187  A    between atoms: _461  and  _462
REMARK  188  A    between atoms: _465  and  _467
REMARK  189  A    between atoms: _467  and  _468
REMARK  190  A    between atoms: _467  and  _470
REMARK  191  A    between atoms: _473  and  _475
REMARK  192  A    between atoms: _475  and  _476
REMARK  193  A    between atoms: _478  and  _480
REMARK  194  A    between atoms: _480  and  _481
REMARK  195  A    between atoms: _480  and  _483
REMARK  196  A    between atoms: _486  and  _488
REMARK  197  A    between atoms: _488  and  _489
REMARK  198  A    between atoms: _488  and  _491
REMARK  199  A    between atoms: _491  and  _492
REMARK  200  A    between atoms: _495  and  _497
REMARK  201  A    between atoms: _497  and  _498
REMARK  202  A    between atoms: _497  and  _500
REMARK  203  A    between atoms: _500  and  _501
REMARK  204  A    between atoms: _501  and  _502
REMARK  205  A    between atoms: _504  and  _506
REMARK  206  A    between atoms: _506  and  _507
REMARK  207  A    between atoms: _506  and  _509
REMARK  208  A    between atoms: _509  and  _510
REMARK  209  A    between atoms: _515  and  _516
REMARK  210  A    between atoms: _518  and  _520
REMARK  211  A    between atoms: _520  and  _521
REMARK  212  A    between atoms: _520  and  _523
REMARK  213  A    between atoms: _523  and  _524
REMARK  214  A    between atoms: _527  and  _529
REMARK  215  A    between atoms: _529  and  _530
REMARK  216  A    between atoms: _529  and  _532
REMARK  217  A    between atoms: _532  and  _533
REMARK  218  A    between atoms: _538  and  _540
REMARK  219  A    between atoms: _540  and  _541
REMARK  220  A    between atoms: _540  and  _543
REMARK  221  A    between atoms: _543  and  _544
REMARK  222  A    between atoms: _546  and  _548
REMARK  223  A    between atoms: _548  and  _549
REMARK  224  A    between atoms: _551  and  _553
REMARK  225  A    between atoms: _553  and  _554
REMARK  226  A    between atoms: _553  and  _556
REMARK  227  A    between atoms: _556  and  _557
REMARK  228  A    between atoms: _560  and  _562
REMARK  229  A    between atoms: _562  and  _563
REMARK  230  A    between atoms: _562  and  _565
REMARK  231  A    between atoms: _565  and  _566
REMARK  232  A    between atoms: _569  and  _571
REMARK  233  A    between atoms: _571  and  _572
REMARK  234  A    between atoms: _571  and  _574
REMARK  235  A    between atoms: _574  and  _575
REMARK  236  A    between atoms: _581  and  _583
REMARK  237  A    between atoms: _583  and  _584
REMARK  238  A    between atoms: _583  and  _586
REMARK  239  A    between atoms: _586  and  _587
REMARK  240  A    between atoms: _590  and  _592
REMARK  241  A    between atoms: _592  and  _593
REMARK  242  A    between atoms: _592  and  _595
REMARK  243  A    between atoms: _598  and  _600
REMARK  244  A    between atoms: _600  and  _601
REMARK  245  A    between atoms: _600  and  _603
REMARK  246  A    between atoms: _603  and  _604
REMARK  247  A    between atoms: _607  and  _609
REMARK  248  A    between atoms: _609  and  _610
REMARK  249  A    between atoms: _609  and  _612
REMARK  250  A    between atoms: _612  and  _613
REMARK  251  A    between atoms: _613  and  _614
REMARK  252  A    between atoms: _614  and  _615
REMARK  253  A    between atoms: _624  and  _626
REMARK  254  A    between atoms: _626  and  _627
REMARK  255  A    between atoms: _626  and  _629
REMARK  256  A    between atoms: _629  and  _630
REMARK                            x       y       z     vdW  Elec       q    Type
REMARK                         _______ _______ _______ _____ _____    ______ ____
ROOT
ATOM      1  CG  TYR A   1     -37.616  17.416  -0.488  0.00  0.00    -0.020 A 
ATOM      2  CD2 TYR A   1     -36.461  16.774  -0.904  0.00  0.00    -0.001 A 
ATOM      3  CE2 TYR A   1     -36.291  16.379  -2.211  0.00  0.00    +0.036 A 
ATOM      4  CZ  TYR A   1     -37.298  16.650  -3.137  0.00  0.00    +0.134 A 
ATOM      5  CE1 TYR A   1     -38.444  17.299  -2.745  0.00  0.00    +0.036 A 
ATOM      6  CD1 TYR A   1     -38.604  17.670  -1.439  0.00  0.00    -0.001 A 
ENDROOT
BRANCH   4   7
ATOM      7  OH  TYR A   1     -37.174  16.272  -4.451  0.00  0.00    -0.506 OA
ATOM      8  HH  TYR A   1     -36.303  15.819  -4.582  0.00  0.00    +0.292 HD
ENDBRANCH   4   7
BRANCH   1   9
ATOM      9  CB  TYR A   1     -37.803  17.844   0.945  0.00  0.00    +0.051 C 
BRANCH   9  10
ATOM     10  CA  TYR A   1     -37.774  16.719   1.971  0.00  0.00    +0.137 C 
BRANCH  10  11
ATOM     11  N   TYR A   1     -38.913  15.845   1.867  0.00  0.00    -0.239 NA
ATOM     12  H   TYR A   1     -39.749  16.153   1.331  0.00  0.00    +0.142 HD
ENDBRANCH  10  11
BRANCH  10  13
ATOM     13  C   TYR A   1     -37.827  17.321   3.364  0.00  0.00    +0.224 C 
ATOM     14  O   TYR A   1     -38.904  17.659   3.860  0.00  0.00    -0.287 OA
ENDBRANCH  10  13
ENDBRANCH   9  10
ENDBRANCH   1   9
TORSDOF 5
REMARK  Name = ../refined-set-2016/3ies/3ies_pocket.pdb
REMARK  256 active torsions:
REMARK  status: ('A' for Active; 'I' for Inactive)
REMARK    1  A    between atoms: _1  and  _3
REMARK    2  A    between atoms: _3  and  _4
REMARK    3  A    between atoms: _3  and  _6
REMARK    4  A    between atoms: _6  and  _7
REMARK    5  A    between atoms: _7  and  _8
REMARK    6  A    between atoms: _10  and  _12
REMARK    7  A    between atoms: _12  and  _13
REMARK    8  A    between atoms: _12  and  _15
REMARK    9  A    between atoms: _15  and  _16
REMARK   10  A    between atoms: _21  and  _23
REMARK   11  A    between atoms: _23  and  _24
REMARK   12  A    between atoms: _23  and  _26
REMARK   13  A    between atoms: _26  and  _27
REMARK   14  A    between atoms: _29  and  _31
REMARK   15  A    between atoms: _31  and  _32
REMARK   16  A    between atoms: _31  and  _34
REMARK   17  A    between atoms: _37  and  _39
REMARK   18  A    between atoms: _39  and  _40
REMARK   19  A    between atoms: _39  and  _42
REMARK   20  A    between atoms: _42  and  _43
REMARK   21  A    between atoms: _43  and  _44
REMARK   22  A    between atoms: _44  and  _45
REMARK   23  A    between atoms: _54  and  _56
REMARK   24  A    between atoms: _56  and  _57
REMARK   25  A    between atoms: _56  and  _59
REMARK   26  A    between atoms: _59  and  _60
REMARK   27  A    between atoms: _65  and  _67
REMARK   28  A    between atoms: _67  and  _68
REMARK   29  A    between atoms: _71  and  _73
REMARK   30  A    between atoms: _73  and  _74
REMARK   31  A    between atoms: _73  and  _76
REMARK   32  A    between atoms: _76  and  _77
REMARK   33  A    between atoms: _83  and  _85
REMARK   34  A    between atoms: _85  and  _86
REMARK   35  A    between atoms: _88  and  _90
REMARK   36  A    between atoms: _90  and  _91
REMARK   37  A    between atoms: _90  and  _93
REMARK   38  A    between atoms: _93  and  _94
REMARK   39  A    between atoms: _99  and  _101
REMARK   40  A    between atoms: _101  and  _102
REMARK   41  A    between atoms: _101  and  _104
REMARK   42  A    between atoms: _104  and  _105
REMARK   43  A    between atoms: _110  and  _112
REMARK   44  A    between atoms: _112  and  _113
REMARK   45  A    between atoms: _115  and  _117
REMARK   46  A    between atoms: _117  and  _118
REMARK   47  A    between atoms: _117  and  _120
REMARK   48  A    between atoms: _120  and  _121
REMARK   49  A    between atoms: _127  and  _129
REMARK   50  A    between atoms: _129  and  _130
REMARK   51  A    between atoms: _132  and  _134
REMARK   52  A    between atoms: _134  and  _135
REMARK   53  A    between atoms: _134  and  _137
REMARK   54  A    between atoms: _137  and  _138
REMARK   55  A    between atoms: _138  and  _139
REMARK   56  A    between atoms: _141  and  _143
REMARK   57  A    between atoms: _143  and  _144
REMARK   58  A    between atoms: _143  and  _146
REMARK   59  A    between atoms: _146  and  _147
REMARK   60  A    between atoms: _153  and  _155
REMARK   61  A    between atoms: _155  and  _156
REMARK   62  A    between atoms: _155  and  _158
REMARK   63  A    between atoms: _158  and  _159
REMARK   64  A    between atoms: _162  and  _164
REMARK   65  A    between atoms: _164  and  _165
REMARK   66  A    between atoms: _164  and  _167
REMARK   67  A    between atoms: _167  and  _168
REMARK   68  A    between atoms: _171  and  _173
REMARK   69  A    between atoms: _173  and  _174
REMARK   70  A    between atoms: _173  and  _176
REMARK   71  A    between atoms: _176  and  _177
REMARK   72  A    between atoms: _182  and  _183
REMARK   73  A    between atoms: _185  and  _187
REMARK   74  A    between atoms: _187  and  _188
REMARK   75  A    between atoms: _187  and  _190
REMARK   76  A    between atoms: _190  and  _191
REMARK   77  A    between atoms: _193  and  _195
REMARK   78  A    between atoms: _195  and  _196
REMARK   79  A    between atoms: _199  and  _201
REMARK   80  A    between atoms: _201  and  _202
REMARK   81  A    between atoms: _201  and  _204
REMARK   82  A    between atoms: _204  and  _205
REMARK   83  A    between atoms: _208  and  _210
REMARK   84  A    between atoms: _210  and  _211
REMARK   85  A    between atoms: _210  and  _213
REMARK   86  A    between atoms: _213  and  _214
REMARK   87  A    between atoms: _217  and  _219
REMARK   88  A    between atoms: _219  and  _220
REMARK   89  A    between atoms: _219  and  _222
REMARK   90  A    between atoms: _226  and  _227
REMARK   91  A    between atoms: _232  and  _234
REMARK   92  A    between atoms: _234  and  _235
REMARK   93  A    between atoms: _234  and  _237
REMARK   94  A    between atoms: _237  and  _238
REMARK   95  A    between atoms: _238  and  _239
REMARK   96  A    between atoms: _242  and  _244
REMARK   97  A    between atoms: _244  and  _245
REMARK   98  A    between atoms: _244  and  _247
REMARK   99  A    between atoms: _247  and  _248
REMARK  100  A    between atoms: _251  and  _253
REMARK  101  A    between atoms: _253  and  _254
REMARK  102  A    between atoms: _257  and  _259
REMARK  103  A    between atoms: _259  and  _260
REMARK  104  A    between atoms: _259  and  _262
REMARK  105  A    between atoms: _262  and  _263
REMARK  106  A    between atoms: _265  and  _267
REMARK  107  A    between atoms: _267  and  _268
REMARK  108  A    between atoms: _270  and  _272
REMARK  109  A    between atoms: _272  and  _273
REMARK  110  A    between atoms: _275  and  _277
REMARK  111  A    between atoms: _277  and  _278
REMARK  112  A    between atoms: _282  and  _283
REMARK  113  A    between atoms: _288  and  _290
REMARK  114  A    between atoms: _290  and  _291
REMARK  115  A    between atoms: _290  and  _293
REMARK  116  A    between atoms: _293  and  _294
REMARK  117  A    between atoms: _297  and  _299
REMARK  118  A    between atoms: _299  and  _300
REMARK  119  A    between atoms: _299  and  _302
REMARK  120  A    between atoms: _302  and  _303
REMARK  121  A    between atoms: _305  and  _307
REMARK  122  A    between atoms: _307  and  _308
REMARK  123  A    between atoms: _307  and  _310
REMARK  124  A    between atoms: _310  and  _311
REMARK  125  A    between atoms: _311  and  _312
REMARK  126  A    between atoms: _312  and  _313
REMARK  127  A    between atoms: _322  and  _324
REMARK  128  A    between atoms: _324  and  _325
REMARK  129  A    between atoms: _324  and  _327
REMARK  130  A    between atoms: _327  and  _328
REMARK  131  A    between atoms: _328  and  _329
REMARK  132  A    between atoms: _334  and  _336
REMARK  133  A    between atoms: _336  and  _337
REMARK  134  A    between atoms: _339  and  _341
REMARK  135  A    between atoms: _341  and  _342
REMARK  136  A    between atoms: _341  and  _344
REMARK  137  A    between atoms: _344  and  _345
REMARK  138  A    between atoms: _350  and  _351
REMARK  139  A    between atoms: _353  and  _355
REMARK  140  A    between atoms: _355  and  _356
REMARK  141  A    between atoms: _358  and  _360
REMARK  142  A    between atoms: _360  and  _361
REMARK  143  A    between atoms: _360  and  _363
REMARK  144  A    between atoms: _363  and  _364
REMARK  145  A    between atoms: _367  and  _369
REMARK  146  A    between atoms: _369  and  _370
REMARK  147  A    between atoms: _369  and  _372
REMARK  148  A    between atoms: _372  and  _373
REMARK  149  A    between atoms: _376  and  _378
REMARK  150  A    between atoms: _378  and  _379
REMARK  151  A    between atoms: _378  and  _381
REMARK  152  A    between atoms: _381  and  _382
REMARK  153  A    between atoms: _382  and  _383
REMARK  154  A    between atoms: _386  and  _388
REMARK  155  A    between atoms: _388  and  _389
REMARK  156  A    between atoms: _388  and  _391
REMARK  157  A    between atoms: _391  and  _392
REMARK  158  A    between atoms: _395  and  _397
REMARK  159  A    between atoms: _397  and  _398
REMARK  160  A    between atoms: _397  and  _400
REMARK  161  A    between atoms: _400  and  _401
REMARK  162  A    between atoms: _404  and  _406
REMARK  163  A    between atoms: _406  and  _407
REMARK  164  A    between atoms: _406  and  _409
REMARK  165  A    between atoms: _409  and  _410
REMARK  166  A    between atoms: _412  and  _414
REMARK  167  A    between atoms: _414  and  _415
REMARK  168  A    between atoms: _418  and  _420
REMARK  169  A    between atoms: _420  and  _421
REMARK  170  A    between atoms: _420  and  _423
REMARK  171  A    between atoms: _423  and  _424
REMARK  172  A    between atoms: _427  and  _429
REMARK  173  A    between atoms: _429  and  _430
REMARK  174  A    between atoms: _429  and  _432
REMARK  175  A    between atoms: _432  and  _433
REMARK  176  A    between atoms: _436  and  _438
REMARK  177  A    between atoms: _438  and  _439
REMARK  178  A    between atoms: _438  and  _441
REMARK  179  A    between atoms: _441  and  _442
REMARK  180  A    between atoms: _445  and  _447
REMARK  181  A    between atoms: _447  and  _448
REMARK  182  A    between atoms: _447  and  _450
REMARK  183  A    between atoms: _450  and  _451
REMARK  184  A    between atoms: _454  and  _456
REMARK  185  A    between atoms: _456  and  _457
REMARK  186  A    between atoms: _459  and  _461
REMARK  187  A    between atoms: _461  and  _462
REMARK  188  A    between atoms: _465  and  _467
REMARK  189  A    between atoms: _467  and  _468
REMARK  190  A    between atoms: _467  and  _470
REMARK  191  A    between atoms: _473  and  _475
REMARK  192  A    between atoms: _475  and  _476
REMARK  193  A    between atoms: _478  and  _480
REMARK  194  A    between atoms: _480  and  _481
REMARK  195  A    between atoms: _480  and  _483
REMARK  196  A    between atoms: _486  and  _488
REMARK  197  A    between atoms: _488  and  _489
REMARK  198  A    between atoms: _488  and  _491
REMARK  199  A    between atoms: _491  and  _492
REMARK  200  A    between atoms: _495  and  _497
REMARK  201  A    between atoms: _497  and  _498
REMARK  202  A    between atoms: _497  and  _500
REMARK  203  A    between atoms: _500  and  _501
REMARK  204  A    between atoms: _501  and  _502
REMARK  205  A    between atoms: _504  and  _506
REMARK  206  A    between atoms: _506  and  _507
REMARK  207  A    between atoms: _506  and  _509
REMARK  208  A    between atoms: _509  and  _510
REMARK  209  A    between atoms: _515  and  _516
REMARK  210  A    between atoms: _518  and  _520
REMARK  211  A    between atoms: _520  and  _521
REMARK  212  A    between atoms: _520  and  _523
REMARK  213  A    between atoms: _523  and  _524
REMARK  214  A    between atoms: _527  and  _529
REMARK  215  A    between atoms: _529  and  _530
REMARK  216  A    between atoms: _529  and  _532
REMARK  217  A    between atoms: _532  and  _533
REMARK  218  A    between atoms: _538  and  _540
REMARK  219  A    between atoms: _540  and  _541
REMARK  220  A    between atoms: _540  and  _543
REMARK  221  A    between atoms: _543  and  _544
REMARK  222  A    between atoms: _546  and  _548
REMARK  223  A    between atoms: _548  and  _549
REMARK  224  A    between atoms: _551  and  _553
REMARK  225  A    between atoms: _553  and  _554
REMARK  226  A    between atoms: _553  and  _556
REMARK  227  A    between atoms: _556  and  _557
REMARK  228  A    between atoms: _560  and  _562
REMARK  229  A    between atoms: _562  and  _563
REMARK  230  A    between atoms: _562  and  _565
REMARK  231  A    between atoms: _565  and  _566
REMARK  232  A    between atoms: _569  and  _571
REMARK  233  A    between atoms: _571  and  _572
REMARK  234  A    between atoms: _571  and  _574
REMARK  235  A    between atoms: _574  and  _575
REMARK  236  A    between atoms: _581  and  _583
REMARK  237  A    between atoms: _583  and  _584
REMARK  238  A    between atoms: _583  and  _586
REMARK  239  A    between atoms: _586  and  _587
REMARK  240  A    between atoms: _590  and  _592
REMARK  241  A    between atoms: _592  and  _593
REMARK  242  A    between atoms: _592  and  _595
REMARK  243  A    between atoms: _598  and  _600
REMARK  244  A    between atoms: _600  and  _601
REMARK  245  A    between atoms: _600  and  _603
REMARK  246  A    between atoms: _603  and  _604
REMARK  247  A    between atoms: _607  and  _609
REMARK  248  A    between atoms: _609  and  _610
REMARK  249  A    between atoms: _609  and  _612
REMARK  250  A    between atoms: _612  and  _613
REMARK  251  A    between atoms: _613  and  _614
REMARK  252  A    between atoms: _614  and  _615
REMARK  253  A    between atoms: _624  and  _626
REMARK  254  A    between atoms: _626  and  _627
REMARK  255  A    between atoms: _626  and  _629
REMARK  256  A    between atoms: _629  and  _630
REMARK                            x       y       z     vdW  Elec       q    Type
REMARK                         _______ _______ _______ _____ _____    ______ ____
ROOT
ATOM      1  CA  SER A   3     -39.590  11.823 -11.750  0.00  0.00    +0.178 C 
ENDROOT
BRANCH   1   4
ATOM      2  C   HIS A   2     -41.741  12.648 -10.937  0.00  0.00    +0.241 C 
ATOM      3  O   HIS A   2     -41.260  13.675 -10.520  0.00  0.00    -0.273 OA
ATOM      4  N   SER A   3     -41.054  11.758 -11.637  0.00  0.00    -0.295 N 
ATOM      5  H   SER A   3     -41.565  10.992 -12.120  0.00  0.00    +0.150 HD
BRANCH   2   6
ATOM      6  CA  HIS A   2     -43.191  12.305 -10.644  0.00  0.00    +0.155 C 
BRANCH   6   8
ATOM      7  C   LEU A   1     -43.277  10.600  -8.921  0.00  0.00    +0.238 C 
ATOM      8  N   HIS A   2     -43.303  11.877  -9.264  0.00  0.00    -0.297 N 
ATOM      9  H   HIS A   2     -43.407  12.596  -8.520  0.00  0.00    +0.150 HD
ATOM     10  O   LEU A   1     -43.114   9.701  -9.725  0.00  0.00    -0.274 OA
BRANCH   7  11
ATOM     11  CA  LEU A   1     -43.461  10.285  -7.429  0.00  0.00    +0.145 C 
BRANCH  11  12
ATOM     12  N   LEU A   1     -44.561   9.341  -7.259  0.00  0.00    -0.238 NA
ATOM     13  H   LEU A   1     -44.364   8.320  -7.250  0.00  0.00    +0.142 HD
ENDBRANCH  11  12
BRANCH  11  14
ATOM     14  CB  LEU A   1     -42.153   9.712  -6.843  0.00  0.00    +0.026 C 
BRANCH  14  15
ATOM     15  CG  LEU A   1     -40.981  10.686  -6.938  0.00  0.00    +0.002 C 
ATOM     16  CD2 LEU A   1     -39.938  10.378  -5.838  0.00  0.00    +0.000 C 
ATOM     17  CD1 LEU A   1     -40.353  10.637  -8.335  0.00  0.00    +0.000 C 
ENDBRANCH  14  15
ENDBRANCH  11  14
ENDBRANCH   7  11
ENDBRANCH   6   8
BRANCH   6  18
ATOM     18  CB  HIS A   2     -44.096  13.501 -10.900  0.00  0.00    +0.076 C 
BRANCH  18  19
ATOM     19  CG  HIS A   2     -45.552  13.154 -10.862  0.00  0.00    +0.082 A 
ATOM     20  CD2 HIS A   2     -46.294  12.555  -9.901  0.00  0.00    +0.115 A 
ATOM     21  NE2 HIS A   2     -47.576  12.460 -10.380  0.00  0.00    -0.221 NA
ATOM     22  CE1 HIS A   2     -47.620  12.975 -11.596  0.00  0.00    +0.199 A 
ATOM     23  ND1 HIS A   2     -46.412  13.409 -11.910  0.00  0.00    -0.227 NA
ENDBRANCH  18  19
ENDBRANCH   6  18
ENDBRANCH   2   6
ENDBRANCH   1   4
BRANCH   1  24
ATOM     24  C   SER A   3     -39.094  13.019 -12.485  0.00  0.00    +0.243 C 
ATOM     25  O   SER A   3     -37.992  13.480 -12.237  0.00  0.00    -0.273 OA
ATOM     26  N   GLY A   4     -39.885  13.534 -13.428  0.00  0.00    -0.295 N 
ATOM     27  H   GLY A   4     -40.868  13.206 -13.518  0.00  0.00    +0.150 HD
BRANCH  26  28
ATOM     28  CA  GLY A   4     -39.372  14.559 -14.334  0.00  0.00    +0.176 C 
BRANCH  28  29
ATOM     29  C   GLY A   4     -38.594  13.993 -15.521  0.00  0.00    +0.243 C 
ATOM     30  N   ASP A   5     -38.465  12.683 -15.571  0.00  0.00    -0.296 N 
ATOM     31  H   ASP A   5     -38.827  12.110 -14.782  0.00  0.00    +0.150 HD
ATOM     32  O   GLY A   4     -38.098  14.734 -16.373  0.00  0.00    -0.273 OA
BRANCH  30  33
ATOM     33  CA  ASP A   5     -37.838  12.020 -16.685  0.00  0.00    +0.160 C 
BRANCH  33  34
ATOM     34  C   ASP A   5     -38.903  11.519 -17.678  0.00  0.00    +0.241 C 
ATOM     35  O   ASP A   5     -39.978  11.082 -17.256  0.00  0.00    -0.273 OA
ATOM     36  N   ILE A   6     -38.574  11.545 -18.971  0.00  0.00    -0.298 N 
ATOM     37  H   ILE A   6     -37.690  12.020 -19.245  0.00  0.00    +0.150 HD
BRANCH  36  38
ATOM     38  CA  ILE A   6     -39.393  10.938 -20.028  0.00  0.00    +0.137 C 
BRANCH  38  39
ATOM     39  CB  ILE A   6     -39.375  11.829 -21.281  0.00  0.00    +0.026 C 
ATOM     40  CG2 ILE A   6     -40.269  11.241 -22.369  0.00  0.00    +0.002 C 
BRANCH  39  41
ATOM     41  CG1 ILE A   6     -39.843  13.228 -20.879  0.00  0.00    +0.002 C 
ATOM     42  CD1 ILE A   6     -39.588  14.280 -21.895  0.00  0.00    +0.000 C 
ENDBRANCH  39  41
ENDBRANCH  38  39
BRANCH  38  43
ATOM     43  C   ILE A   6     -38.954   9.526 -20.376  0.00  0.00    +0.227 C 
ATOM     44  O   ILE A   6     -37.756   9.264 -20.578  0.00  0.00    -0.286 OA
ENDBRANCH  38  43
ENDBRANCH  36  38
ENDBRANCH  33  34
BRANCH  33  45
ATOM     45  CB  ASP A   5     -37.034  10.826 -16.154  0.00  0.00    +0.143 C 
BRANCH  45  46
ATOM     46  CG  ASP A   5     -35.967  11.246 -15.155  0.00  0.00    +0.367 C 
ATOM     47  OD2 ASP A   5     -35.893  10.633 -14.039  0.00  0.00    -0.246 OA
ATOM     48  OD1 ASP A   5     -35.227  12.200 -15.496  0.00  0.00    -0.246 OA
ENDBRANCH  45  46
ENDBRANCH  33  45
ENDBRANCH  30  33
ENDBRANCH  28  29
ENDBRANCH  26  28
ENDBRANCH   1  24
BRANCH   1  49
ATOM     49  CB  SER A   3     -39.090  10.598 -12.483  0.00  0.00    +0.166 C 
BRANCH  49  50
ATOM     50  OG  SER A   3     -39.389  10.688 -13.873  0.00  0.00    -0.380 OA
ATOM     51  H   SER A   3     -40.369  10.757 -13.995  0.00  0.00    +0.211 HD
ENDBRANCH  49  50
ENDBRANCH   1  49
TORSDOF 22
REMARK  Name = ../refined-set-2016/3ies/3ies_pocket.pdb
REMARK  256 active torsions:
REMARK  status: ('A' for Active; 'I' for Inactive)
REMARK    1  A    between atoms: _1  and  _3
REMARK    2  A    between atoms: _3  and  _4
REMARK    3  A    between atoms: _3  and  _6
REMARK    4  A    between atoms: _6  and  _7
REMARK    5  A    between atoms: _7  and  _8
REMARK    6  A    between atoms: _10  and  _12
REMARK    7  A    between atoms: _12  and  _13
REMARK    8  A    between atoms: _12  and  _15
REMARK    9  A    between atoms: _15  and  _16
REMARK   10  A    between atoms: _21  and  _23
REMARK   11  A    between atoms: _23  and  _24
REMARK   12  A    between atoms: _23  and  _26
REMARK   13  A    between atoms: _26  and  _27
REMARK   14  A    between atoms: _29  and  _31
REMARK   15  A    between atoms: _31  and  _32
REMARK   16  A    between atoms: _31  and  _34
REMARK   17  A    between atoms: _37  and  _39
REMARK   18  A    between atoms: _39  and  _40
REMARK   19  A    between atoms: _39  and  _42
REMARK   20  A    between atoms: _42  and  _43
REMARK   21  A    between atoms: _43  and  _44
REMARK   22  A    between atoms: _44  and  _45
REMARK   23  A    between atoms: _54  and  _56
REMARK   24  A    between atoms: _56  and  _57
REMARK   25  A    between atoms: _56  and  _59
REMARK   26  A    between atoms: _59  and  _60
REMARK   27  A    between atoms: _65  and  _67
REMARK   28  A    between atoms: _67  and  _68
REMARK   29  A    between atoms: _71  and  _73
REMARK   30  A    between atoms: _73  and  _74
REMARK   31  A    between atoms: _73  and  _76
REMARK   32  A    between atoms: _76  and  _77
REMARK   33  A    between atoms: _83  and  _85
REMARK   34  A    between atoms: _85  and  _86
REMARK   35  A    between atoms: _88  and  _90
REMARK   36  A    between atoms: _90  and  _91
REMARK   37  A    between atoms: _90  and  _93
REMARK   38  A    between atoms: _93  and  _94
REMARK   39  A    between atoms: _99  and  _101
REMARK   40  A    between atoms: _101  and  _102
REMARK   41  A    between atoms: _101  and  _104
REMARK   42  A    between atoms: _104  and  _105
REMARK   43  A    between atoms: _110  and  _112
REMARK   44  A    between atoms: _112  and  _113
REMARK   45  A    between atoms: _115  and  _117
REMARK   46  A    between atoms: _117  and  _118
REMARK   47  A    between atoms: _117  and  _120
REMARK   48  A    between atoms: _120  and  _121
REMARK   49  A    between atoms: _127  and  _129
REMARK   50  A    between atoms: _129  and  _130
REMARK   51  A    between atoms: _132  and  _134
REMARK   52  A    between atoms: _134  and  _135
REMARK   53  A    between atoms: _134  and  _137
REMARK   54  A    between atoms: _137  and  _138
REMARK   55  A    between atoms: _138  and  _139
REMARK   56  A    between atoms: _141  and  _143
REMARK   57  A    between atoms: _143  and  _144
REMARK   58  A    between atoms: _143  and  _146
REMARK   59  A    between atoms: _146  and  _147
REMARK   60  A    between atoms: _153  and  _155
REMARK   61  A    between atoms: _155  and  _156
REMARK   62  A    between atoms: _155  and  _158
REMARK   63  A    between atoms: _158  and  _159
REMARK   64  A    between atoms: _162  and  _164
REMARK   65  A    between atoms: _164  and  _165
REMARK   66  A    between atoms: _164  and  _167
REMARK   67  A    between atoms: _167  and  _168
REMARK   68  A    between atoms: _171  and  _173
REMARK   69  A    between atoms: _173  and  _174
REMARK   70  A    between atoms: _173  and  _176
REMARK   71  A    between atoms: _176  and  _177
REMARK   72  A    between atoms: _182  and  _183
REMARK   73  A    between atoms: _185  and  _187
REMARK   74  A    between atoms: _187  and  _188
REMARK   75  A    between atoms: _187  and  _190
REMARK   76  A    between atoms: _190  and  _191
REMARK   77  A    between atoms: _193  and  _195
REMARK   78  A    between atoms: _195  and  _196
REMARK   79  A    between atoms: _199  and  _201
REMARK   80  A    between atoms: _201  and  _202
REMARK   81  A    between atoms: _201  and  _204
REMARK   82  A    between atoms: _204  and  _205
REMARK   83  A    between atoms: _208  and  _210
REMARK   84  A    between atoms: _210  and  _211
REMARK   85  A    between atoms: _210  and  _213
REMARK   86  A    between atoms: _213  and  _214
REMARK   87  A    between atoms: _217  and  _219
REMARK   88  A    between atoms: _219  and  _220
REMARK   89  A    between atoms: _219  and  _222
REMARK   90  A    between atoms: _226  and  _227
REMARK   91  A    between atoms: _232  and  _234
REMARK   92  A    between atoms: _234  and  _235
REMARK   93  A    between atoms: _234  and  _237
REMARK   94  A    between atoms: _237  and  _238
REMARK   95  A    between atoms: _238  and  _239
REMARK   96  A    between atoms: _242  and  _244
REMARK   97  A    between atoms: _244  and  _245
REMARK   98  A    between atoms: _244  and  _247
REMARK   99  A    between atoms: _247  and  _248
REMARK  100  A    between atoms: _251  and  _253
REMARK  101  A    between atoms: _253  and  _254
REMARK  102  A    between atoms: _257  and  _259
REMARK  103  A    between atoms: _259  and  _260
REMARK  104  A    between atoms: _259  and  _262
REMARK  105  A    between atoms: _262  and  _263
REMARK  106  A    between atoms: _265  and  _267
REMARK  107  A    between atoms: _267  and  _268
REMARK  108  A    between atoms: _270  and  _272
REMARK  109  A    between atoms: _272  and  _273
REMARK  110  A    between atoms: _275  and  _277
REMARK  111  A    between atoms: _277  and  _278
REMARK  112  A    between atoms: _282  and  _283
REMARK  113  A    between atoms: _288  and  _290
REMARK  114  A    between atoms: _290  and  _291
REMARK  115  A    between atoms: _290  and  _293
REMARK  116  A    between atoms: _293  and  _294
REMARK  117  A    between atoms: _297  and  _299
REMARK  118  A    between atoms: _299  and  _300
REMARK  119  A    between atoms: _299  and  _302
REMARK  120  A    between atoms: _302  and  _303
REMARK  121  A    between atoms: _305  and  _307
REMARK  122  A    between atoms: _307  and  _308
REMARK  123  A    between atoms: _307  and  _310
REMARK  124  A    between atoms: _310  and  _311
REMARK  125  A    between atoms: _311  and  _312
REMARK  126  A    between atoms: _312  and  _313
REMARK  127  A    between atoms: _322  and  _324
REMARK  128  A    between atoms: _324  and  _325
REMARK  129  A    between atoms: _324  and  _327
REMARK  130  A    between atoms: _327  and  _328
REMARK  131  A    between atoms: _328  and  _329
REMARK  132  A    between atoms: _334  and  _336
REMARK  133  A    between atoms: _336  and  _337
REMARK  134  A    between atoms: _339  and  _341
REMARK  135  A    between atoms: _341  and  _342
REMARK  136  A    between atoms: _341  and  _344
REMARK  137  A    between atoms: _344  and  _345
REMARK  138  A    between atoms: _350  and  _351
REMARK  139  A    between atoms: _353  and  _355
REMARK  140  A    between atoms: _355  and  _356
REMARK  141  A    between atoms: _358  and  _360
REMARK  142  A    between atoms: _360  and  _361
REMARK  143  A    between atoms: _360  and  _363
REMARK  144  A    between atoms: _363  and  _364
REMARK  145  A    between atoms: _367  and  _369
REMARK  146  A    between atoms: _369  and  _370
REMARK  147  A    between atoms: _369  and  _372
REMARK  148  A    between atoms: _372  and  _373
REMARK  149  A    between atoms: _376  and  _378
REMARK  150  A    between atoms: _378  and  _379
REMARK  151  A    between atoms: _378  and  _381
REMARK  152  A    between atoms: _381  and  _382
REMARK  153  A    between atoms: _382  and  _383
REMARK  154  A    between atoms: _386  and  _388
REMARK  155  A    between atoms: _388  and  _389
REMARK  156  A    between atoms: _388  and  _391
REMARK  157  A    between atoms: _391  and  _392
REMARK  158  A    between atoms: _395  and  _397
REMARK  159  A    between atoms: _397  and  _398
REMARK  160  A    between atoms: _397  and  _400
REMARK  161  A    between atoms: _400  and  _401
REMARK  162  A    between atoms: _404  and  _406
REMARK  163  A    between atoms: _406  and  _407
REMARK  164  A    between atoms: _406  and  _409
REMARK  165  A    between atoms: _409  and  _410
REMARK  166  A    between atoms: _412  and  _414
REMARK  167  A    between atoms: _414  and  _415
REMARK  168  A    between atoms: _418  and  _420
REMARK  169  A    between atoms: _420  and  _421
REMARK  170  A    between atoms: _420  and  _423
REMARK  171  A    between atoms: _423  and  _424
REMARK  172  A    between atoms: _427  and  _429
REMARK  173  A    between atoms: _429  and  _430
REMARK  174  A    between atoms: _429  and  _432
REMARK  175  A    between atoms: _432  and  _433
REMARK  176  A    between atoms: _436  and  _438
REMARK  177  A    between atoms: _438  and  _439
REMARK  178  A    between atoms: _438  and  _441
REMARK  179  A    between atoms: _441  and  _442
REMARK  180  A    between atoms: _445  and  _447
REMARK  181  A    between atoms: _447  and  _448
REMARK  182  A    between atoms: _447  and  _450
REMARK  183  A    between atoms: _450  and  _451
REMARK  184  A    between atoms: _454  and  _456
REMARK  185  A    between atoms: _456  and  _457
REMARK  186  A    between atoms: _459  and  _461
REMARK  187  A    between atoms: _461  and  _462
REMARK  188  A    between atoms: _465  and  _467
REMARK  189  A    between atoms: _467  and  _468
REMARK  190  A    between atoms: _467  and  _470
REMARK  191  A    between atoms: _473  and  _475
REMARK  192  A    between atoms: _475  and  _476
REMARK  193  A    between atoms: _478  and  _480
REMARK  194  A    between atoms: _480  and  _481
REMARK  195  A    between atoms: _480  and  _483
REMARK  196  A    between atoms: _486  and  _488
REMARK  197  A    between atoms: _488  and  _489
REMARK  198  A    between atoms: _488  and  _491
REMARK  199  A    between atoms: _491  and  _492
REMARK  200  A    between atoms: _495  and  _497
REMARK  201  A    between atoms: _497  and  _498
REMARK  202  A    between atoms: _497  and  _500
REMARK  203  A    between atoms: _500  and  _501
REMARK  204  A    between atoms: _501  and  _502
REMARK  205  A    between atoms: _504  and  _506
REMARK  206  A    between atoms: _506  and  _507
REMARK  207  A    between atoms: _506  and  _509
REMARK  208  A    between atoms: _509  and  _510
REMARK  209  A    between atoms: _515  and  _516
REMARK  210  A    between atoms: _518  and  _520
REMARK  211  A    between atoms: _520  and  _521
REMARK  212  A    between atoms: _520  and  _523
REMARK  213  A    between atoms: _523  and  _524
REMARK  214  A    between atoms: _527  and  _529
REMARK  215  A    between atoms: _529  and  _530
REMARK  216  A    between atoms: _529  and  _532
REMARK  217  A    between atoms: _532  and  _533
REMARK  218  A    between atoms: _538  and  _540
REMARK  219  A    between atoms: _540  and  _541
REMARK  220  A    between atoms: _540  and  _543
REMARK  221  A    between atoms: _543  and  _544
REMARK  222  A    between atoms: _546  and  _548
REMARK  223  A    between atoms: _548  and  _549
REMARK  224  A    between atoms: _551  and  _553
REMARK  225  A    between atoms: _553  and  _554
REMARK  226  A    between atoms: _553  and  _556
REMARK  227  A    between atoms: _556  and  _557
REMARK  228  A    between atoms: _560  and  _562
REMARK  229  A    between atoms: _562  and  _563
REMARK  230  A    between atoms: _562  and  _565
REMARK  231  A    between atoms: _565  and  _566
REMARK  232  A    between atoms: _569  and  _571
REMARK  233  A    between atoms: _571  and  _572
REMARK  234  A    between atoms: _571  and  _574
REMARK  235  A    between atoms: _574  and  _575
REMARK  236  A    between atoms: _581  and  _583
REMARK  237  A    between atoms: _583  and  _584
REMARK  238  A    between atoms: _583  and  _586
REMARK  239  A    between atoms: _586  and  _587
REMARK  240  A    between atoms: _590  and  _592
REMARK  241  A    between atoms: _592  and  _593
REMARK  242  A    between atoms: _592  and  _595
REMARK  243  A    between atoms: _598  and  _600
REMARK  244  A    between atoms: _600  and  _601
REMARK  245  A    between atoms: _600  and  _603
REMARK  246  A    between atoms: _603  and  _604
REMARK  247  A    between atoms: _607  and  _609
REMARK  248  A    between atoms: _609  and  _610
REMARK  249  A    between atoms: _609  and  _612
REMARK  250  A    between atoms: _612  and  _613
REMARK  251  A    between atoms: _613  and  _614
REMARK  252  A    between atoms: _614  and  _615
REMARK  253  A    between atoms: _624  and  _626
REMARK  254  A    between atoms: _626  and  _627
REMARK  255  A    between atoms: _626  and  _629
REMARK  256  A    between atoms: _629  and  _630
REMARK                            x       y       z     vdW  Elec       q    Type
REMARK                         _______ _______ _______ _____ _____    ______ ____
ROOT
ATOM      1  CA  ASP A   4     -35.426  12.532 -22.147  0.00  0.00    +0.160 C 
ENDROOT
BRANCH   1   2
ATOM      2  C   ASP A   4     -35.749  13.023 -20.743  0.00  0.00    +0.241 C 
ATOM      3  O   ASP A   4     -36.127  12.257 -19.867  0.00  0.00    -0.273 OA
ATOM      4  N   ARG A   5     -35.589  14.318 -20.539  0.00  0.00    -0.297 N 
ATOM      5  H   ARG A   5     -35.157  14.904 -21.282  0.00  0.00    +0.150 HD
BRANCH   4   6
ATOM      6  CA  ARG A   5     -36.005  14.932 -19.302  0.00  0.00    +0.149 C 
BRANCH   6   7
ATOM      7  C   ARG A   5     -36.749  16.227 -19.589  0.00  0.00    +0.241 C 
ATOM      8  N   LEU A   6     -37.662  16.583 -18.695  0.00  0.00    -0.298 N 
ATOM      9  H   LEU A   6     -37.801  15.996 -17.848  0.00  0.00    +0.150 HD
ATOM     10  O   ARG A   5     -36.498  16.899 -20.593  0.00  0.00    -0.273 OA
BRANCH   8  11
ATOM     11  CA  LEU A   6     -38.480  17.789 -18.876  0.00  0.00    +0.137 C 
BRANCH  11  12
ATOM     12  C   LEU A   6     -37.660  19.072 -18.847  0.00  0.00    +0.227 C 
ATOM     13  O   LEU A   6     -36.948  19.322 -17.878  0.00  0.00    -0.286 OA
ENDBRANCH  11  12
BRANCH  11  14
ATOM     14  CB  LEU A   6     -39.582  17.833 -17.815  0.00  0.00    +0.028 C 
BRANCH  14  15
ATOM     15  CG  LEU A   6     -40.731  16.899 -18.182  0.00  0.00    +0.002 C 
ATOM     16  CD2 LEU A   6     -41.788  16.845 -17.073  0.00  0.00    +0.000 C 
ATOM     17  CD1 LEU A   6     -41.309  17.380 -19.525  0.00  0.00    +0.000 C 
ENDBRANCH  14  15
ENDBRANCH  11  14
ENDBRANCH   8  11
ENDBRANCH   6   7
BRANCH   6  18
ATOM     18  CB  ARG A   5     -34.808  15.194 -18.394  0.00  0.00    +0.033 C 
BRANCH  18  19
ATOM     19  CG  ARG A   5     -35.251  15.592 -17.005  0.00  0.00    +0.045 C 
BRANCH  19  20
ATOM     20  CD  ARG A   5     -34.167  15.427 -15.992  0.00  0.00    +0.174 C 
BRANCH  20  21
ATOM     21  NE  ARG A   5     -34.532  16.123 -14.768  0.00  0.00    -0.265 N 
ATOM     22  CZ  ARG A   5     -35.256  15.580 -13.799  0.00  0.00    +0.342 C 
ATOM     23  NH2 ARG A   5     -35.547  16.283 -12.714  0.00  0.00    -0.292 N 
ATOM     24 HH21 ARG A   5     -36.115  15.856 -11.955  0.00  0.00    +0.255 HD
ATOM     25 HH22 ARG A   5     -35.207  17.262 -12.622  0.00  0.00    +0.255 HD
ATOM     26  NH1 ARG A   5     -35.698  14.340 -13.915  0.00  0.00    -0.292 N 
ATOM     27 HH11 ARG A   5     -36.266  13.917 -13.153  0.00  0.00    +0.255 HD
ATOM     28 HH12 ARG A   5     -35.478  13.787 -14.768  0.00  0.00    +0.255 HD
ATOM     29  HE  ARG A   5     -34.206  17.103 -14.646  0.00  0.00    +0.259 HD
ENDBRANCH  20  21
ENDBRANCH  19  20
ENDBRANCH  18  19
ENDBRANCH   6  18
ENDBRANCH   4   6
ENDBRANCH   1   2
BRANCH   1  31
ATOM     30  C   VAL A   3     -35.169  10.447 -23.291  0.00  0.00    +0.241 C 
ATOM     31  N   ASP A   4     -35.565  11.095 -22.215  0.00  0.00    -0.297 N 
ATOM     32  H   ASP A   4     -35.977  10.573 -21.415  0.00  0.00    +0.150 HD
ATOM     33  O   VAL A   3     -34.614  11.023 -24.229  0.00  0.00    -0.273 OA
BRANCH  30  34
ATOM     34  CA  VAL A   3     -35.399   8.939 -23.308  0.00  0.00    +0.149 C 
BRANCH  34  36
ATOM     35  C   ILE A   2     -34.763   7.366 -21.611  0.00  0.00    +0.241 C 
ATOM     36  N   VAL A   3     -35.508   8.401 -21.985  0.00  0.00    -0.297 N 
ATOM     37  H   VAL A   3     -36.177   8.825 -21.310  0.00  0.00    +0.150 HD
ATOM     38  O   ILE A   2     -33.750   7.018 -22.214  0.00  0.00    -0.273 OA
BRANCH  35  39
ATOM     39  CA  ILE A   2     -35.217   6.617 -20.383  0.00  0.00    +0.148 C 
BRANCH  39  41
ATOM     40  C   PHE A   1     -36.261   4.619 -21.218  0.00  0.00    +0.239 C 
ATOM     41  N   ILE A   2     -35.194   5.213 -20.711  0.00  0.00    -0.297 N 
ATOM     42  H   ILE A   2     -34.328   4.661 -20.547  0.00  0.00    +0.150 HD
ATOM     43  O   PHE A   1     -37.349   5.173 -21.306  0.00  0.00    -0.274 OA
BRANCH  40  44
ATOM     44  CA  PHE A   1     -36.104   3.192 -21.619  0.00  0.00    +0.149 C 
BRANCH  44  45
ATOM     45  N   PHE A   1     -37.107   2.424 -20.888  0.00  0.00    -0.238 NA
ATOM     46  H   PHE A   1     -38.094   2.751 -20.909  0.00  0.00    +0.142 HD
ENDBRANCH  44  45
BRANCH  44  47
ATOM     47  CB  PHE A   1     -36.297   3.052 -23.141  0.00  0.00    +0.053 C 
BRANCH  47  48
ATOM     48  CG  PHE A   1     -36.095   1.675 -23.636  0.00  0.00    -0.020 A 
ATOM     49  CD2 PHE A   1     -37.094   0.729 -23.508  0.00  0.00    -0.004 A 
ATOM     50  CE2 PHE A   1     -36.902  -0.566 -23.953  0.00  0.00    -0.000 A 
ATOM     51  CZ  PHE A   1     -35.698  -0.927 -24.532  0.00  0.00    -0.000 A 
ATOM     52  CE1 PHE A   1     -34.688   0.009 -24.652  0.00  0.00    -0.000 A 
ATOM     53  CD1 PHE A   1     -34.892   1.304 -24.208  0.00  0.00    -0.004 A 
ENDBRANCH  47  48
ENDBRANCH  44  47
ENDBRANCH  40  44
ENDBRANCH  39  41
BRANCH  39  54
ATOM     54  CB  ILE A   2     -34.280   6.968 -19.227  0.00  0.00    +0.027 C 
ATOM     55  CG2 ILE A   2     -34.365   8.456 -18.933  0.00  0.00    +0.002 C 
BRANCH  54  56
ATOM     56  CG1 ILE A   2     -34.604   6.099 -18.019  0.00  0.00    +0.002 C 
ATOM     57  CD1 ILE A   2     -36.037   6.282 -17.505  0.00  0.00    +0.000 C 
ENDBRANCH  54  56
ENDBRANCH  39  54
ENDBRANCH  35  39
ENDBRANCH  34  36
BRANCH  34  58
ATOM     58  CB  VAL A   3     -36.670   8.559 -24.080  0.00  0.00    +0.027 C 
ATOM     59  CG2 VAL A   3     -37.205   9.729 -24.844  0.00  0.00    +0.002 C 
ATOM     60  CG1 VAL A   3     -36.409   7.317 -24.956  0.00  0.00    +0.002 C 
ENDBRANCH  34  58
ENDBRANCH  30  34
ENDBRANCH   1  31
BRANCH   1  61
ATOM     61  CB  ASP A   4     -36.380  13.182 -23.173  0.00  0.00    +0.143 C 
BRANCH  61  62
ATOM     62  CG  ASP A   4     -36.036  14.625 -23.478  0.00  0.00    +0.367 C 
ATOM     63  OD2 ASP A   4     -35.000  15.145 -22.993  0.00  0.00    -0.246 OA
ATOM     64  OD1 ASP A   4     -36.821  15.251 -24.220  0.00  0.00    -0.246 OA
ENDBRANCH  61  62
ENDBRANCH   1  61
TORSDOF 25
REMARK  Name = ../refined-set-2016/3ies/3ies_pocket.pdb
REMARK  256 active torsions:
REMARK  status: ('A' for Active; 'I' for Inactive)
REMARK    1  A    between atoms: _1  and  _3
REMARK    2  A    between atoms: _3  and  _4
REMARK    3  A    between atoms: _3  and  _6
REMARK    4  A    between atoms: _6  and  _7
REMARK    5  A    between atoms: _7  and  _8
REMARK    6  A    between atoms: _10  and  _12
REMARK    7  A    between atoms: _12  and  _13
REMARK    8  A    between atoms: _12  and  _15
REMARK    9  A    between atoms: _15  and  _16
REMARK   10  A    between atoms: _21  and  _23
REMARK   11  A    between atoms: _23  and  _24
REMARK   12  A    between atoms: _23  and  _26
REMARK   13  A    between atoms: _26  and  _27
REMARK   14  A    between atoms: _29  and  _31
REMARK   15  A    between atoms: _31  and  _32
REMARK   16  A    between atoms: _31  and  _34
REMARK   17  A    between atoms: _37  and  _39
REMARK   18  A    between atoms: _39  and  _40
REMARK   19  A    between atoms: _39  and  _42
REMARK   20  A    between atoms: _42  and  _43
REMARK   21  A    between atoms: _43  and  _44
REMARK   22  A    between atoms: _44  and  _45
REMARK   23  A    between atoms: _54  and  _56
REMARK   24  A    between atoms: _56  and  _57
REMARK   25  A    between atoms: _56  and  _59
REMARK   26  A    between atoms: _59  and  _60
REMARK   27  A    between atoms: _65  and  _67
REMARK   28  A    between atoms: _67  and  _68
REMARK   29  A    between atoms: _71  and  _73
REMARK   30  A    between atoms: _73  and  _74
REMARK   31  A    between atoms: _73  and  _76
REMARK   32  A    between atoms: _76  and  _77
REMARK   33  A    between atoms: _83  and  _85
REMARK   34  A    between atoms: _85  and  _86
REMARK   35  A    between atoms: _88  and  _90
REMARK   36  A    between atoms: _90  and  _91
REMARK   37  A    between atoms: _90  and  _93
REMARK   38  A    between atoms: _93  and  _94
REMARK   39  A    between atoms: _99  and  _101
REMARK   40  A    between atoms: _101  and  _102
REMARK   41  A    between atoms: _101  and  _104
REMARK   42  A    between atoms: _104  and  _105
REMARK   43  A    between atoms: _110  and  _112
REMARK   44  A    between atoms: _112  and  _113
REMARK   45  A    between atoms: _115  and  _117
REMARK   46  A    between atoms: _117  and  _118
REMARK   47  A    between atoms: _117  and  _120
REMARK   48  A    between atoms: _120  and  _121
REMARK   49  A    between atoms: _127  and  _129
REMARK   50  A    between atoms: _129  and  _130
REMARK   51  A    between atoms: _132  and  _134
REMARK   52  A    between atoms: _134  and  _135
REMARK   53  A    between atoms: _134  and  _137
REMARK   54  A    between atoms: _137  and  _138
REMARK   55  A    between atoms: _138  and  _139
REMARK   56  A    between atoms: _141  and  _143
REMARK   57  A    between atoms: _143  and  _144
REMARK   58  A    between atoms: _143  and  _146
REMARK   59  A    between atoms: _146  and  _147
REMARK   60  A    between atoms: _153  and  _155
REMARK   61  A    between atoms: _155  and  _156
REMARK   62  A    between atoms: _155  and  _158
REMARK   63  A    between atoms: _158  and  _159
REMARK   64  A    between atoms: _162  and  _164
REMARK   65  A    between atoms: _164  and  _165
REMARK   66  A    between atoms: _164  and  _167
REMARK   67  A    between atoms: _167  and  _168
REMARK   68  A    between atoms: _171  and  _173
REMARK   69  A    between atoms: _173  and  _174
REMARK   70  A    between atoms: _173  and  _176
REMARK   71  A    between atoms: _176  and  _177
REMARK   72  A    between atoms: _182  and  _183
REMARK   73  A    between atoms: _185  and  _187
REMARK   74  A    between atoms: _187  and  _188
REMARK   75  A    between atoms: _187  and  _190
REMARK   76  A    between atoms: _190  and  _191
REMARK   77  A    between atoms: _193  and  _195
REMARK   78  A    between atoms: _195  and  _196
REMARK   79  A    between atoms: _199  and  _201
REMARK   80  A    between atoms: _201  and  _202
REMARK   81  A    between atoms: _201  and  _204
REMARK   82  A    between atoms: _204  and  _205
REMARK   83  A    between atoms: _208  and  _210
REMARK   84  A    between atoms: _210  and  _211
REMARK   85  A    between atoms: _210  and  _213
REMARK   86  A    between atoms: _213  and  _214
REMARK   87  A    between atoms: _217  and  _219
REMARK   88  A    between atoms: _219  and  _220
REMARK   89  A    between atoms: _219  and  _222
REMARK   90  A    between atoms: _226  and  _227
REMARK   91  A    between atoms: _232  and  _234
REMARK   92  A    between atoms: _234  and  _235
REMARK   93  A    between atoms: _234  and  _237
REMARK   94  A    between atoms: _237  and  _238
REMARK   95  A    between atoms: _238  and  _239
REMARK   96  A    between atoms: _242  and  _244
REMARK   97  A    between atoms: _244  and  _245
REMARK   98  A    between atoms: _244  and  _247
REMARK   99  A    between atoms: _247  and  _248
REMARK  100  A    between atoms: _251  and  _253
REMARK  101  A    between atoms: _253  and  _254
REMARK  102  A    between atoms: _257  and  _259
REMARK  103  A    between atoms: _259  and  _260
REMARK  104  A    between atoms: _259  and  _262
REMARK  105  A    between atoms: _262  and  _263
REMARK  106  A    between atoms: _265  and  _267
REMARK  107  A    between atoms: _267  and  _268
REMARK  108  A    between atoms: _270  and  _272
REMARK  109  A    between atoms: _272  and  _273
REMARK  110  A    between atoms: _275  and  _277
REMARK  111  A    between atoms: _277  and  _278
REMARK  112  A    between atoms: _282  and  _283
REMARK  113  A    between atoms: _288  and  _290
REMARK  114  A    between atoms: _290  and  _291
REMARK  115  A    between atoms: _290  and  _293
REMARK  116  A    between atoms: _293  and  _294
REMARK  117  A    between atoms: _297  and  _299
REMARK  118  A    between atoms: _299  and  _300
REMARK  119  A    between atoms: _299  and  _302
REMARK  120  A    between atoms: _302  and  _303
REMARK  121  A    between atoms: _305  and  _307
REMARK  122  A    between atoms: _307  and  _308
REMARK  123  A    between atoms: _307  and  _310
REMARK  124  A    between atoms: _310  and  _311
REMARK  125  A    between atoms: _311  and  _312
REMARK  126  A    between atoms: _312  and  _313
REMARK  127  A    between atoms: _322  and  _324
REMARK  128  A    between atoms: _324  and  _325
REMARK  129  A    between atoms: _324  and  _327
REMARK  130  A    between atoms: _327  and  _328
REMARK  131  A    between atoms: _328  and  _329
REMARK  132  A    between atoms: _334  and  _336
REMARK  133  A    between atoms: _336  and  _337
REMARK  134  A    between atoms: _339  and  _341
REMARK  135  A    between atoms: _341  and  _342
REMARK  136  A    between atoms: _341  and  _344
REMARK  137  A    between atoms: _344  and  _345
REMARK  138  A    between atoms: _350  and  _351
REMARK  139  A    between atoms: _353  and  _355
REMARK  140  A    between atoms: _355  and  _356
REMARK  141  A    between atoms: _358  and  _360
REMARK  142  A    between atoms: _360  and  _361
REMARK  143  A    between atoms: _360  and  _363
REMARK  144  A    between atoms: _363  and  _364
REMARK  145  A    between atoms: _367  and  _369
REMARK  146  A    between atoms: _369  and  _370
REMARK  147  A    between atoms: _369  and  _372
REMARK  148  A    between atoms: _372  and  _373
REMARK  149  A    between atoms: _376  and  _378
REMARK  150  A    between atoms: _378  and  _379
REMARK  151  A    between atoms: _378  and  _381
REMARK  152  A    between atoms: _381  and  _382
REMARK  153  A    between atoms: _382  and  _383
REMARK  154  A    between atoms: _386  and  _388
REMARK  155  A    between atoms: _388  and  _389
REMARK  156  A    between atoms: _388  and  _391
REMARK  157  A    between atoms: _391  and  _392
REMARK  158  A    between atoms: _395  and  _397
REMARK  159  A    between atoms: _397  and  _398
REMARK  160  A    between atoms: _397  and  _400
REMARK  161  A    between atoms: _400  and  _401
REMARK  162  A    between atoms: _404  and  _406
REMARK  163  A    between atoms: _406  and  _407
REMARK  164  A    between atoms: _406  and  _409
REMARK  165  A    between atoms: _409  and  _410
REMARK  166  A    between atoms: _412  and  _414
REMARK  167  A    between atoms: _414  and  _415
REMARK  168  A    between atoms: _418  and  _420
REMARK  169  A    between atoms: _420  and  _421
REMARK  170  A    between atoms: _420  and  _423
REMARK  171  A    between atoms: _423  and  _424
REMARK  172  A    between atoms: _427  and  _429
REMARK  173  A    between atoms: _429  and  _430
REMARK  174  A    between atoms: _429  and  _432
REMARK  175  A    between atoms: _432  and  _433
REMARK  176  A    between atoms: _436  and  _438
REMARK  177  A    between atoms: _438  and  _439
REMARK  178  A    between atoms: _438  and  _441
REMARK  179  A    between atoms: _441  and  _442
REMARK  180  A    between atoms: _445  and  _447
REMARK  181  A    between atoms: _447  and  _448
REMARK  182  A    between atoms: _447  and  _450
REMARK  183  A    between atoms: _450  and  _451
REMARK  184  A    between atoms: _454  and  _456
REMARK  185  A    between atoms: _456  and  _457
REMARK  186  A    between atoms: _459  and  _461
REMARK  187  A    between atoms: _461  and  _462
REMARK  188  A    between atoms: _465  and  _467
REMARK  189  A    between atoms: _467  and  _468
REMARK  190  A    between atoms: _467  and  _470
REMARK  191  A    between atoms: _473  and  _475
REMARK  192  A    between atoms: _475  and  _476
REMARK  193  A    between atoms: _478  and  _480
REMARK  194  A    between atoms: _480  and  _481
REMARK  195  A    between atoms: _480  and  _483
REMARK  196  A    between atoms: _486  and  _488
REMARK  197  A    between atoms: _488  and  _489
REMARK  198  A    between atoms: _488  and  _491
REMARK  199  A    between atoms: _491  and  _492
REMARK  200  A    between atoms: _495  and  _497
REMARK  201  A    between atoms: _497  and  _498
REMARK  202  A    between atoms: _497  and  _500
REMARK  203  A    between atoms: _500  and  _501
REMARK  204  A    between atoms: _501  and  _502
REMARK  205  A    between atoms: _504  and  _506
REMARK  206  A    between atoms: _506  and  _507
REMARK  207  A    between atoms: _506  and  _509
REMARK  208  A    between atoms: _509  and  _510
REMARK  209  A    between atoms: _515  and  _516
REMARK  210  A    between atoms: _518  and  _520
REMARK  211  A    between atoms: _520  and  _521
REMARK  212  A    between atoms: _520  and  _523
REMARK  213  A    between atoms: _523  and  _524
REMARK  214  A    between atoms: _527  and  _529
REMARK  215  A    between atoms: _529  and  _530
REMARK  216  A    between atoms: _529  and  _532
REMARK  217  A    between atoms: _532  and  _533
REMARK  218  A    between atoms: _538  and  _540
REMARK  219  A    between atoms: _540  and  _541
REMARK  220  A    between atoms: _540  and  _543
REMARK  221  A    between atoms: _543  and  _544
REMARK  222  A    between atoms: _546  and  _548
REMARK  223  A    between atoms: _548  and  _549
REMARK  224  A    between atoms: _551  and  _553
REMARK  225  A    between atoms: _553  and  _554
REMARK  226  A    between atoms: _553  and  _556
REMARK  227  A    between atoms: _556  and  _557
REMARK  228  A    between atoms: _560  and  _562
REMARK  229  A    between atoms: _562  and  _563
REMARK  230  A    between atoms: _562  and  _565
REMARK  231  A    between atoms: _565  and  _566
REMARK  232  A    between atoms: _569  and  _571
REMARK  233  A    between atoms: _571  and  _572
REMARK  234  A    between atoms: _571  and  _574
REMARK  235  A    between atoms: _574  and  _575
REMARK  236  A    between atoms: _581  and  _583
REMARK  237  A    between atoms: _583  and  _584
REMARK  238  A    between atoms: _583  and  _586
REMARK  239  A    between atoms: _586  and  _587
REMARK  240  A    between atoms: _590  and  _592
REMARK  241  A    between atoms: _592  and  _593
REMARK  242  A    between atoms: _592  and  _595
REMARK  243  A    between atoms: _598  and  _600
REMARK  244  A    between atoms: _600  and  _601
REMARK  245  A    between atoms: _600  and  _603
REMARK  246  A    between atoms: _603  and  _604
REMARK  247  A    between atoms: _607  and  _609
REMARK  248  A    between atoms: _609  and  _610
REMARK  249  A    between atoms: _609  and  _612
REMARK  250  A    between atoms: _612  and  _613
REMARK  251  A    between atoms: _613  and  _614
REMARK  252  A    between atoms: _614  and  _615
REMARK  253  A    between atoms: _624  and  _626
REMARK  254  A    between atoms: _626  and  _627
REMARK  255  A    between atoms: _626  and  _629
REMARK  256  A    between atoms: _629  and  _630
REMARK                            x       y       z     vdW  Elec       q    Type
REMARK                         _______ _______ _______ _____ _____    ______ ____
ROOT
ATOM      1  O   HOH     1     -26.097  -3.964  -2.968  0.00  0.00    +0.000 OA
ENDROOT
TORSDOF 0
REMARK  Name = ../refined-set-2016/3ies/3ies_pocket.pdb
REMARK  256 active torsions:
REMARK  status: ('A' for Active; 'I' for Inactive)
REMARK    1  A    between atoms: _1  and  _3
REMARK    2  A    between atoms: _3  and  _4
REMARK    3  A    between atoms: _3  and  _6
REMARK    4  A    between atoms: _6  and  _7
REMARK    5  A    between atoms: _7  and  _8
REMARK    6  A    between atoms: _10  and  _12
REMARK    7  A    between atoms: _12  and  _13
REMARK    8  A    between atoms: _12  and  _15
REMARK    9  A    between atoms: _15  and  _16
REMARK   10  A    between atoms: _21  and  _23
REMARK   11  A    between atoms: _23  and  _24
REMARK   12  A    between atoms: _23  and  _26
REMARK   13  A    between atoms: _26  and  _27
REMARK   14  A    between atoms: _29  and  _31
REMARK   15  A    between atoms: _31  and  _32
REMARK   16  A    between atoms: _31  and  _34
REMARK   17  A    between atoms: _37  and  _39
REMARK   18  A    between atoms: _39  and  _40
REMARK   19  A    between atoms: _39  and  _42
REMARK   20  A    between atoms: _42  and  _43
REMARK   21  A    between atoms: _43  and  _44
REMARK   22  A    between atoms: _44  and  _45
REMARK   23  A    between atoms: _54  and  _56
REMARK   24  A    between atoms: _56  and  _57
REMARK   25  A    between atoms: _56  and  _59
REMARK   26  A    between atoms: _59  and  _60
REMARK   27  A    between atoms: _65  and  _67
REMARK   28  A    between atoms: _67  and  _68
REMARK   29  A    between atoms: _71  and  _73
REMARK   30  A    between atoms: _73  and  _74
REMARK   31  A    between atoms: _73  and  _76
REMARK   32  A    between atoms: _76  and  _77
REMARK   33  A    between atoms: _83  and  _85
REMARK   34  A    between atoms: _85  and  _86
REMARK   35  A    between atoms: _88  and  _90
REMARK   36  A    between atoms: _90  and  _91
REMARK   37  A    between atoms: _90  and  _93
REMARK   38  A    between atoms: _93  and  _94
REMARK   39  A    between atoms: _99  and  _101
REMARK   40  A    between atoms: _101  and  _102
REMARK   41  A    between atoms: _101  and  _104
REMARK   42  A    between atoms: _104  and  _105
REMARK   43  A    between atoms: _110  and  _112
REMARK   44  A    between atoms: _112  and  _113
REMARK   45  A    between atoms: _115  and  _117
REMARK   46  A    between atoms: _117  and  _118
REMARK   47  A    between atoms: _117  and  _120
REMARK   48  A    between atoms: _120  and  _121
REMARK   49  A    between atoms: _127  and  _129
REMARK   50  A    between atoms: _129  and  _130
REMARK   51  A    between atoms: _132  and  _134
REMARK   52  A    between atoms: _134  and  _135
REMARK   53  A    between atoms: _134  and  _137
REMARK   54  A    between atoms: _137  and  _138
REMARK   55  A    between atoms: _138  and  _139
REMARK   56  A    between atoms: _141  and  _143
REMARK   57  A    between atoms: _143  and  _144
REMARK   58  A    between atoms: _143  and  _146
REMARK   59  A    between atoms: _146  and  _147
REMARK   60  A    between atoms: _153  and  _155
REMARK   61  A    between atoms: _155  and  _156
REMARK   62  A    between atoms: _155  and  _158
REMARK   63  A    between atoms: _158  and  _159
REMARK   64  A    between atoms: _162  and  _164
REMARK   65  A    between atoms: _164  and  _165
REMARK   66  A    between atoms: _164  and  _167
REMARK   67  A    between atoms: _167  and  _168
REMARK   68  A    between atoms: _171  and  _173
REMARK   69  A    between atoms: _173  and  _174
REMARK   70  A    between atoms: _173  and  _176
REMARK   71  A    between atoms: _176  and  _177
REMARK   72  A    between atoms: _182  and  _183
REMARK   73  A    between atoms: _185  and  _187
REMARK   74  A    between atoms: _187  and  _188
REMARK   75  A    between atoms: _187  and  _190
REMARK   76  A    between atoms: _190  and  _191
REMARK   77  A    between atoms: _193  and  _195
REMARK   78  A    between atoms: _195  and  _196
REMARK   79  A    between atoms: _199  and  _201
REMARK   80  A    between atoms: _201  and  _202
REMARK   81  A    between atoms: _201  and  _204
REMARK   82  A    between atoms: _204  and  _205
REMARK   83  A    between atoms: _208  and  _210
REMARK   84  A    between atoms: _210  and  _211
REMARK   85  A    between atoms: _210  and  _213
REMARK   86  A    between atoms: _213  and  _214
REMARK   87  A    between atoms: _217  and  _219
REMARK   88  A    between atoms: _219  and  _220
REMARK   89  A    between atoms: _219  and  _222
REMARK   90  A    between atoms: _226  and  _227
REMARK   91  A    between atoms: _232  and  _234
REMARK   92  A    between atoms: _234  and  _235
REMARK   93  A    between atoms: _234  and  _237
REMARK   94  A    between atoms: _237  and  _238
REMARK   95  A    between atoms: _238  and  _239
REMARK   96  A    between atoms: _242  and  _244
REMARK   97  A    between atoms: _244  and  _245
REMARK   98  A    between atoms: _244  and  _247
REMARK   99  A    between atoms: _247  and  _248
REMARK  100  A    between atoms: _251  and  _253
REMARK  101  A    between atoms: _253  and  _254
REMARK  102  A    between atoms: _257  and  _259
REMARK  103  A    between atoms: _259  and  _260
REMARK  104  A    between atoms: _259  and  _262
REMARK  105  A    between atoms: _262  and  _263
REMARK  106  A    between atoms: _265  and  _267
REMARK  107  A    between atoms: _267  and  _268
REMARK  108  A    between atoms: _270  and  _272
REMARK  109  A    between atoms: _272  and  _273
REMARK  110  A    between atoms: _275  and  _277
REMARK  111  A    between atoms: _277  and  _278
REMARK  112  A    between atoms: _282  and  _283
REMARK  113  A    between atoms: _288  and  _290
REMARK  114  A    between atoms: _290  and  _291
REMARK  115  A    between atoms: _290  and  _293
REMARK  116  A    between atoms: _293  and  _294
REMARK  117  A    between atoms: _297  and  _299
REMARK  118  A    between atoms: _299  and  _300
REMARK  119  A    between atoms: _299  and  _302
REMARK  120  A    between atoms: _302  and  _303
REMARK  121  A    between atoms: _305  and  _307
REMARK  122  A    between atoms: _307  and  _308
REMARK  123  A    between atoms: _307  and  _310
REMARK  124  A    between atoms: _310  and  _311
REMARK  125  A    between atoms: _311  and  _312
REMARK  126  A    between atoms: _312  and  _313
REMARK  127  A    between atoms: _322  and  _324
REMARK  128  A    between atoms: _324  and  _325
REMARK  129  A    between atoms: _324  and  _327
REMARK  130  A    between atoms: _327  and  _328
REMARK  131  A    between atoms: _328  and  _329
REMARK  132  A    between atoms: _334  and  _336
REMARK  133  A    between atoms: _336  and  _337
REMARK  134  A    between atoms: _339  and  _341
REMARK  135  A    between atoms: _341  and  _342
REMARK  136  A    between atoms: _341  and  _344
REMARK  137  A    between atoms: _344  and  _345
REMARK  138  A    between atoms: _350  and  _351
REMARK  139  A    between atoms: _353  and  _355
REMARK  140  A    between atoms: _355  and  _356
REMARK  141  A    between atoms: _358  and  _360
REMARK  142  A    between atoms: _360  and  _361
REMARK  143  A    between atoms: _360  and  _363
REMARK  144  A    between atoms: _363  and  _364
REMARK  145  A    between atoms: _367  and  _369
REMARK  146  A    between atoms: _369  and  _370
REMARK  147  A    between atoms: _369  and  _372
REMARK  148  A    between atoms: _372  and  _373
REMARK  149  A    between atoms: _376  and  _378
REMARK  150  A    between atoms: _378  and  _379
REMARK  151  A    between atoms: _378  and  _381
REMARK  152  A    between atoms: _381  and  _382
REMARK  153  A    between atoms: _382  and  _383
REMARK  154  A    between atoms: _386  and  _388
REMARK  155  A    between atoms: _388  and  _389
REMARK  156  A    between atoms: _388  and  _391
REMARK  157  A    between atoms: _391  and  _392
REMARK  158  A    between atoms: _395  and  _397
REMARK  159  A    between atoms: _397  and  _398
REMARK  160  A    between atoms: _397  and  _400
REMARK  161  A    between atoms: _400  and  _401
REMARK  162  A    between atoms: _404  and  _406
REMARK  163  A    between atoms: _406  and  _407
REMARK  164  A    between atoms: _406  and  _409
REMARK  165  A    between atoms: _409  and  _410
REMARK  166  A    between atoms: _412  and  _414
REMARK  167  A    between atoms: _414  and  _415
REMARK  168  A    between atoms: _418  and  _420
REMARK  169  A    between atoms: _420  and  _421
REMARK  170  A    between atoms: _420  and  _423
REMARK  171  A    between atoms: _423  and  _424
REMARK  172  A    between atoms: _427  and  _429
REMARK  173  A    between atoms: _429  and  _430
REMARK  174  A    between atoms: _429  and  _432
REMARK  175  A    between atoms: _432  and  _433
REMARK  176  A    between atoms: _436  and  _438
REMARK  177  A    between atoms: _438  and  _439
REMARK  178  A    between atoms: _438  and  _441
REMARK  179  A    between atoms: _441  and  _442
REMARK  180  A    between atoms: _445  and  _447
REMARK  181  A    between atoms: _447  and  _448
REMARK  182  A    between atoms: _447  and  _450
REMARK  183  A    between atoms: _450  and  _451
REMARK  184  A    between atoms: _454  and  _456
REMARK  185  A    between atoms: _456  and  _457
REMARK  186  A    between atoms: _459  and  _461
REMARK  187  A    between atoms: _461  and  _462
REMARK  188  A    between atoms: _465  and  _467
REMARK  189  A    between atoms: _467  and  _468
REMARK  190  A    between atoms: _467  and  _470
REMARK  191  A    between atoms: _473  and  _475
REMARK  192  A    between atoms: _475  and  _476
REMARK  193  A    between atoms: _478  and  _480
REMARK  194  A    between atoms: _480  and  _481
REMARK  195  A    between atoms: _480  and  _483
REMARK  196  A    between atoms: _486  and  _488
REMARK  197  A    between atoms: _488  and  _489
REMARK  198  A    between atoms: _488  and  _491
REMARK  199  A    between atoms: _491  and  _492
REMARK  200  A    between atoms: _495  and  _497
REMARK  201  A    between atoms: _497  and  _498
REMARK  202  A    between atoms: _497  and  _500
REMARK  203  A    between atoms: _500  and  _501
REMARK  204  A    between atoms: _501  and  _502
REMARK  205  A    between atoms: _504  and  _506
REMARK  206  A    between atoms: _506  and  _507
REMARK  207  A    between atoms: _506  and  _509
REMARK  208  A    between atoms: _509  and  _510
REMARK  209  A    between atoms: _515  and  _516
REMARK  210  A    between atoms: _518  and  _520
REMARK  211  A    between atoms: _520  and  _521
REMARK  212  A    between atoms: _520  and  _523
REMARK  213  A    between atoms: _523  and  _524
REMARK  214  A    between atoms: _527  and  _529
REMARK  215  A    between atoms: _529  and  _530
REMARK  216  A    between atoms: _529  and  _532
REMARK  217  A    between atoms: _532  and  _533
REMARK  218  A    between atoms: _538  and  _540
REMARK  219  A    between atoms: _540  and  _541
REMARK  220  A    between atoms: _540  and  _543
REMARK  221  A    between atoms: _543  and  _544
REMARK  222  A    between atoms: _546  and  _548
REMARK  223  A    between atoms: _548  and  _549
REMARK  224  A    between atoms: _551  and  _553
REMARK  225  A    between atoms: _553  and  _554
REMARK  226  A    between atoms: _553  and  _556
REMARK  227  A    between atoms: _556  and  _557
REMARK  228  A    between atoms: _560  and  _562
REMARK  229  A    between atoms: _562  and  _563
REMARK  230  A    between atoms: _562  and  _565
REMARK  231  A    between atoms: _565  and  _566
REMARK  232  A    between atoms: _569  and  _571
REMARK  233  A    between atoms: _571  and  _572
REMARK  234  A    between atoms: _571  and  _574
REMARK  235  A    between atoms: _574  and  _575
REMARK  236  A    between atoms: _581  and  _583
REMARK  237  A    between atoms: _583  and  _584
REMARK  238  A    between atoms: _583  and  _586
REMARK  239  A    between atoms: _586  and  _587
REMARK  240  A    between atoms: _590  and  _592
REMARK  241  A    between atoms: _592  and  _593
REMARK  242  A    between atoms: _592  and  _595
REMARK  243  A    between atoms: _598  and  _600
REMARK  244  A    between atoms: _600  and  _601
REMARK  245  A    between atoms: _600  and  _603
REMARK  246  A    between atoms: _603  and  _604
REMARK  247  A    between atoms: _607  and  _609
REMARK  248  A    between atoms: _609  and  _610
REMARK  249  A    between atoms: _609  and  _612
REMARK  250  A    between atoms: _612  and  _613
REMARK  251  A    between atoms: _613  and  _614
REMARK  252  A    between atoms: _614  and  _615
REMARK  253  A    between atoms: _624  and  _626
REMARK  254  A    between atoms: _626  and  _627
REMARK  255  A    between atoms: _626  and  _629
REMARK  256  A    between atoms: _629  and  _630
REMARK                            x       y       z     vdW  Elec       q    Type
REMARK                         _______ _______ _______ _____ _____    ______ ____
ROOT
ATOM      1  O   HOH     1     -30.780   8.046  -1.886  0.00  0.00    +0.000 OA
ENDROOT
TORSDOF 0
REMARK  Name = ../refined-set-2016/3ies/3ies_pocket.pdb
REMARK  256 active torsions:
REMARK  status: ('A' for Active; 'I' for Inactive)
REMARK    1  A    between atoms: _1  and  _3
REMARK    2  A    between atoms: _3  and  _4
REMARK    3  A    between atoms: _3  and  _6
REMARK    4  A    between atoms: _6  and  _7
REMARK    5  A    between atoms: _7  and  _8
REMARK    6  A    between atoms: _10  and  _12
REMARK    7  A    between atoms: _12  and  _13
REMARK    8  A    between atoms: _12  and  _15
REMARK    9  A    between atoms: _15  and  _16
REMARK   10  A    between atoms: _21  and  _23
REMARK   11  A    between atoms: _23  and  _24
REMARK   12  A    between atoms: _23  and  _26
REMARK   13  A    between atoms: _26  and  _27
REMARK   14  A    between atoms: _29  and  _31
REMARK   15  A    between atoms: _31  and  _32
REMARK   16  A    between atoms: _31  and  _34
REMARK   17  A    between atoms: _37  and  _39
REMARK   18  A    between atoms: _39  and  _40
REMARK   19  A    between atoms: _39  and  _42
REMARK   20  A    between atoms: _42  and  _43
REMARK   21  A    between atoms: _43  and  _44
REMARK   22  A    between atoms: _44  and  _45
REMARK   23  A    between atoms: _54  and  _56
REMARK   24  A    between atoms: _56  and  _57
REMARK   25  A    between atoms: _56  and  _59
REMARK   26  A    between atoms: _59  and  _60
REMARK   27  A    between atoms: _65  and  _67
REMARK   28  A    between atoms: _67  and  _68
REMARK   29  A    between atoms: _71  and  _73
REMARK   30  A    between atoms: _73  and  _74
REMARK   31  A    between atoms: _73  and  _76
REMARK   32  A    between atoms: _76  and  _77
REMARK   33  A    between atoms: _83  and  _85
REMARK   34  A    between atoms: _85  and  _86
REMARK   35  A    between atoms: _88  and  _90
REMARK   36  A    between atoms: _90  and  _91
REMARK   37  A    between atoms: _90  and  _93
REMARK   38  A    between atoms: _93  and  _94
REMARK   39  A    between atoms: _99  and  _101
REMARK   40  A    between atoms: _101  and  _102
REMARK   41  A    between atoms: _101  and  _104
REMARK   42  A    between atoms: _104  and  _105
REMARK   43  A    between atoms: _110  and  _112
REMARK   44  A    between atoms: _112  and  _113
REMARK   45  A    between atoms: _115  and  _117
REMARK   46  A    between atoms: _117  and  _118
REMARK   47  A    between atoms: _117  and  _120
REMARK   48  A    between atoms: _120  and  _121
REMARK   49  A    between atoms: _127  and  _129
REMARK   50  A    between atoms: _129  and  _130
REMARK   51  A    between atoms: _132  and  _134
REMARK   52  A    between atoms: _134  and  _135
REMARK   53  A    between atoms: _134  and  _137
REMARK   54  A    between atoms: _137  and  _138
REMARK   55  A    between atoms: _138  and  _139
REMARK   56  A    between atoms: _141  and  _143
REMARK   57  A    between atoms: _143  and  _144
REMARK   58  A    between atoms: _143  and  _146
REMARK   59  A    between atoms: _146  and  _147
REMARK   60  A    between atoms: _153  and  _155
REMARK   61  A    between atoms: _155  and  _156
REMARK   62  A    between atoms: _155  and  _158
REMARK   63  A    between atoms: _158  and  _159
REMARK   64  A    between atoms: _162  and  _164
REMARK   65  A    between atoms: _164  and  _165
REMARK   66  A    between atoms: _164  and  _167
REMARK   67  A    between atoms: _167  and  _168
REMARK   68  A    between atoms: _171  and  _173
REMARK   69  A    between atoms: _173  and  _174
REMARK   70  A    between atoms: _173  and  _176
REMARK   71  A    between atoms: _176  and  _177
REMARK   72  A    between atoms: _182  and  _183
REMARK   73  A    between atoms: _185  and  _187
REMARK   74  A    between atoms: _187  and  _188
REMARK   75  A    between atoms: _187  and  _190
REMARK   76  A    between atoms: _190  and  _191
REMARK   77  A    between atoms: _193  and  _195
REMARK   78  A    between atoms: _195  and  _196
REMARK   79  A    between atoms: _199  and  _201
REMARK   80  A    between atoms: _201  and  _202
REMARK   81  A    between atoms: _201  and  _204
REMARK   82  A    between atoms: _204  and  _205
REMARK   83  A    between atoms: _208  and  _210
REMARK   84  A    between atoms: _210  and  _211
REMARK   85  A    between atoms: _210  and  _213
REMARK   86  A    between atoms: _213  and  _214
REMARK   87  A    between atoms: _217  and  _219
REMARK   88  A    between atoms: _219  and  _220
REMARK   89  A    between atoms: _219  and  _222
REMARK   90  A    between atoms: _226  and  _227
REMARK   91  A    between atoms: _232  and  _234
REMARK   92  A    between atoms: _234  and  _235
REMARK   93  A    between atoms: _234  and  _237
REMARK   94  A    between atoms: _237  and  _238
REMARK   95  A    between atoms: _238  and  _239
REMARK   96  A    between atoms: _242  and  _244
REMARK   97  A    between atoms: _244  and  _245
REMARK   98  A    between atoms: _244  and  _247
REMARK   99  A    between atoms: _247  and  _248
REMARK  100  A    between atoms: _251  and  _253
REMARK  101  A    between atoms: _253  and  _254
REMARK  102  A    between atoms: _257  and  _259
REMARK  103  A    between atoms: _259  and  _260
REMARK  104  A    between atoms: _259  and  _262
REMARK  105  A    between atoms: _262  and  _263
REMARK  106  A    between atoms: _265  and  _267
REMARK  107  A    between atoms: _267  and  _268
REMARK  108  A    between atoms: _270  and  _272
REMARK  109  A    between atoms: _272  and  _273
REMARK  110  A    between atoms: _275  and  _277
REMARK  111  A    between atoms: _277  and  _278
REMARK  112  A    between atoms: _282  and  _283
REMARK  113  A    between atoms: _288  and  _290
REMARK  114  A    between atoms: _290  and  _291
REMARK  115  A    between atoms: _290  and  _293
REMARK  116  A    between atoms: _293  and  _294
REMARK  117  A    between atoms: _297  and  _299
REMARK  118  A    between atoms: _299  and  _300
REMARK  119  A    between atoms: _299  and  _302
REMARK  120  A    between atoms: _302  and  _303
REMARK  121  A    between atoms: _305  and  _307
REMARK  122  A    between atoms: _307  and  _308
REMARK  123  A    between atoms: _307  and  _310
REMARK  124  A    between atoms: _310  and  _311
REMARK  125  A    between atoms: _311  and  _312
REMARK  126  A    between atoms: _312  and  _313
REMARK  127  A    between atoms: _322  and  _324
REMARK  128  A    between atoms: _324  and  _325
REMARK  129  A    between atoms: _324  and  _327
REMARK  130  A    between atoms: _327  and  _328
REMARK  131  A    between atoms: _328  and  _329
REMARK  132  A    between atoms: _334  and  _336
REMARK  133  A    between atoms: _336  and  _337
REMARK  134  A    between atoms: _339  and  _341
REMARK  135  A    between atoms: _341  and  _342
REMARK  136  A    between atoms: _341  and  _344
REMARK  137  A    between atoms: _344  and  _345
REMARK  138  A    between atoms: _350  and  _351
REMARK  139  A    between atoms: _353  and  _355
REMARK  140  A    between atoms: _355  and  _356
REMARK  141  A    between atoms: _358  and  _360
REMARK  142  A    between atoms: _360  and  _361
REMARK  143  A    between atoms: _360  and  _363
REMARK  144  A    between atoms: _363  and  _364
REMARK  145  A    between atoms: _367  and  _369
REMARK  146  A    between atoms: _369  and  _370
REMARK  147  A    between atoms: _369  and  _372
REMARK  148  A    between atoms: _372  and  _373
REMARK  149  A    between atoms: _376  and  _378
REMARK  150  A    between atoms: _378  and  _379
REMARK  151  A    between atoms: _378  and  _381
REMARK  152  A    between atoms: _381  and  _382
REMARK  153  A    between atoms: _382  and  _383
REMARK  154  A    between atoms: _386  and  _388
REMARK  155  A    between atoms: _388  and  _389
REMARK  156  A    between atoms: _388  and  _391
REMARK  157  A    between atoms: _391  and  _392
REMARK  158  A    between atoms: _395  and  _397
REMARK  159  A    between atoms: _397  and  _398
REMARK  160  A    between atoms: _397  and  _400
REMARK  161  A    between atoms: _400  and  _401
REMARK  162  A    between atoms: _404  and  _406
REMARK  163  A    between atoms: _406  and  _407
REMARK  164  A    between atoms: _406  and  _409
REMARK  165  A    between atoms: _409  and  _410
REMARK  166  A    between atoms: _412  and  _414
REMARK  167  A    between atoms: _414  and  _415
REMARK  168  A    between atoms: _418  and  _420
REMARK  169  A    between atoms: _420  and  _421
REMARK  170  A    between atoms: _420  and  _423
REMARK  171  A    between atoms: _423  and  _424
REMARK  172  A    between atoms: _427  and  _429
REMARK  173  A    between atoms: _429  and  _430
REMARK  174  A    between atoms: _429  and  _432
REMARK  175  A    between atoms: _432  and  _433
REMARK  176  A    between atoms: _436  and  _438
REMARK  177  A    between atoms: _438  and  _439
REMARK  178  A    between atoms: _438  and  _441
REMARK  179  A    between atoms: _441  and  _442
REMARK  180  A    between atoms: _445  and  _447
REMARK  181  A    between atoms: _447  and  _448
REMARK  182  A    between atoms: _447  and  _450
REMARK  183  A    between atoms: _450  and  _451
REMARK  184  A    between atoms: _454  and  _456
REMARK  185  A    between atoms: _456  and  _457
REMARK  186  A    between atoms: _459  and  _461
REMARK  187  A    between atoms: _461  and  _462
REMARK  188  A    between atoms: _465  and  _467
REMARK  189  A    between atoms: _467  and  _468
REMARK  190  A    between atoms: _467  and  _470
REMARK  191  A    between atoms: _473  and  _475
REMARK  192  A    between atoms: _475  and  _476
REMARK  193  A    between atoms: _478  and  _480
REMARK  194  A    between atoms: _480  and  _481
REMARK  195  A    between atoms: _480  and  _483
REMARK  196  A    between atoms: _486  and  _488
REMARK  197  A    between atoms: _488  and  _489
REMARK  198  A    between atoms: _488  and  _491
REMARK  199  A    between atoms: _491  and  _492
REMARK  200  A    between atoms: _495  and  _497
REMARK  201  A    between atoms: _497  and  _498
REMARK  202  A    between atoms: _497  and  _500
REMARK  203  A    between atoms: _500  and  _501
REMARK  204  A    between atoms: _501  and  _502
REMARK  205  A    between atoms: _504  and  _506
REMARK  206  A    between atoms: _506  and  _507
REMARK  207  A    between atoms: _506  and  _509
REMARK  208  A    between atoms: _509  and  _510
REMARK  209  A    between atoms: _515  and  _516
REMARK  210  A    between atoms: _518  and  _520
REMARK  211  A    between atoms: _520  and  _521
REMARK  212  A    between atoms: _520  and  _523
REMARK  213  A    between atoms: _523  and  _524
REMARK  214  A    between atoms: _527  and  _529
REMARK  215  A    between atoms: _529  and  _530
REMARK  216  A    between atoms: _529  and  _532
REMARK  217  A    between atoms: _532  and  _533
REMARK  218  A    between atoms: _538  and  _540
REMARK  219  A    between atoms: _540  and  _541
REMARK  220  A    between atoms: _540  and  _543
REMARK  221  A    between atoms: _543  and  _544
REMARK  222  A    between atoms: _546  and  _548
REMARK  223  A    between atoms: _548  and  _549
REMARK  224  A    between atoms: _551  and  _553
REMARK  225  A    between atoms: _553  and  _554
REMARK  226  A    between atoms: _553  and  _556
REMARK  227  A    between atoms: _556  and  _557
REMARK  228  A    between atoms: _560  and  _562
REMARK  229  A    between atoms: _562  and  _563
REMARK  230  A    between atoms: _562  and  _565
REMARK  231  A    between atoms: _565  and  _566
REMARK  232  A    between atoms: _569  and  _571
REMARK  233  A    between atoms: _571  and  _572
REMARK  234  A    between atoms: _571  and  _574
REMARK  235  A    between atoms: _574  and  _575
REMARK  236  A    between atoms: _581  and  _583
REMARK  237  A    between atoms: _583  and  _584
REMARK  238  A    between atoms: _583  and  _586
REMARK  239  A    between atoms: _586  and  _587
REMARK  240  A    between atoms: _590  and  _592
REMARK  241  A    between atoms: _592  and  _593
REMARK  242  A    between atoms: _592  and  _595
REMARK  243  A    between atoms: _598  and  _600
REMARK  244  A    between atoms: _600  and  _601
REMARK  245  A    between atoms: _600  and  _603
REMARK  246  A    between atoms: _603  and  _604
REMARK  247  A    between atoms: _607  and  _609
REMARK  248  A    between atoms: _609  and  _610
REMARK  249  A    between atoms: _609  and  _612
REMARK  250  A    between atoms: _612  and  _613
REMARK  251  A    between atoms: _613  and  _614
REMARK  252  A    between atoms: _614  and  _615
REMARK  253  A    between atoms: _624  and  _626
REMARK  254  A    between atoms: _626  and  _627
REMARK  255  A    between atoms: _626  and  _629
REMARK  256  A    between atoms: _629  and  _630
REMARK                            x       y       z     vdW  Elec       q    Type
REMARK                         _______ _______ _______ _____ _____    ______ ____
ROOT
ATOM      1  O   HOH     1     -32.968  -1.077  -5.074  0.00  0.00    +0.000 OA
ENDROOT
TORSDOF 0
REMARK  Name = ../refined-set-2016/3ies/3ies_pocket.pdb
REMARK  256 active torsions:
REMARK  status: ('A' for Active; 'I' for Inactive)
REMARK    1  A    between atoms: _1  and  _3
REMARK    2  A    between atoms: _3  and  _4
REMARK    3  A    between atoms: _3  and  _6
REMARK    4  A    between atoms: _6  and  _7
REMARK    5  A    between atoms: _7  and  _8
REMARK    6  A    between atoms: _10  and  _12
REMARK    7  A    between atoms: _12  and  _13
REMARK    8  A    between atoms: _12  and  _15
REMARK    9  A    between atoms: _15  and  _16
REMARK   10  A    between atoms: _21  and  _23
REMARK   11  A    between atoms: _23  and  _24
REMARK   12  A    between atoms: _23  and  _26
REMARK   13  A    between atoms: _26  and  _27
REMARK   14  A    between atoms: _29  and  _31
REMARK   15  A    between atoms: _31  and  _32
REMARK   16  A    between atoms: _31  and  _34
REMARK   17  A    between atoms: _37  and  _39
REMARK   18  A    between atoms: _39  and  _40
REMARK   19  A    between atoms: _39  and  _42
REMARK   20  A    between atoms: _42  and  _43
REMARK   21  A    between atoms: _43  and  _44
REMARK   22  A    between atoms: _44  and  _45
REMARK   23  A    between atoms: _54  and  _56
REMARK   24  A    between atoms: _56  and  _57
REMARK   25  A    between atoms: _56  and  _59
REMARK   26  A    between atoms: _59  and  _60
REMARK   27  A    between atoms: _65  and  _67
REMARK   28  A    between atoms: _67  and  _68
REMARK   29  A    between atoms: _71  and  _73
REMARK   30  A    between atoms: _73  and  _74
REMARK   31  A    between atoms: _73  and  _76
REMARK   32  A    between atoms: _76  and  _77
REMARK   33  A    between atoms: _83  and  _85
REMARK   34  A    between atoms: _85  and  _86
REMARK   35  A    between atoms: _88  and  _90
REMARK   36  A    between atoms: _90  and  _91
REMARK   37  A    between atoms: _90  and  _93
REMARK   38  A    between atoms: _93  and  _94
REMARK   39  A    between atoms: _99  and  _101
REMARK   40  A    between atoms: _101  and  _102
REMARK   41  A    between atoms: _101  and  _104
REMARK   42  A    between atoms: _104  and  _105
REMARK   43  A    between atoms: _110  and  _112
REMARK   44  A    between atoms: _112  and  _113
REMARK   45  A    between atoms: _115  and  _117
REMARK   46  A    between atoms: _117  and  _118
REMARK   47  A    between atoms: _117  and  _120
REMARK   48  A    between atoms: _120  and  _121
REMARK   49  A    between atoms: _127  and  _129
REMARK   50  A    between atoms: _129  and  _130
REMARK   51  A    between atoms: _132  and  _134
REMARK   52  A    between atoms: _134  and  _135
REMARK   53  A    between atoms: _134  and  _137
REMARK   54  A    between atoms: _137  and  _138
REMARK   55  A    between atoms: _138  and  _139
REMARK   56  A    between atoms: _141  and  _143
REMARK   57  A    between atoms: _143  and  _144
REMARK   58  A    between atoms: _143  and  _146
REMARK   59  A    between atoms: _146  and  _147
REMARK   60  A    between atoms: _153  and  _155
REMARK   61  A    between atoms: _155  and  _156
REMARK   62  A    between atoms: _155  and  _158
REMARK   63  A    between atoms: _158  and  _159
REMARK   64  A    between atoms: _162  and  _164
REMARK   65  A    between atoms: _164  and  _165
REMARK   66  A    between atoms: _164  and  _167
REMARK   67  A    between atoms: _167  and  _168
REMARK   68  A    between atoms: _171  and  _173
REMARK   69  A    between atoms: _173  and  _174
REMARK   70  A    between atoms: _173  and  _176
REMARK   71  A    between atoms: _176  and  _177
REMARK   72  A    between atoms: _182  and  _183
REMARK   73  A    between atoms: _185  and  _187
REMARK   74  A    between atoms: _187  and  _188
REMARK   75  A    between atoms: _187  and  _190
REMARK   76  A    between atoms: _190  and  _191
REMARK   77  A    between atoms: _193  and  _195
REMARK   78  A    between atoms: _195  and  _196
REMARK   79  A    between atoms: _199  and  _201
REMARK   80  A    between atoms: _201  and  _202
REMARK   81  A    between atoms: _201  and  _204
REMARK   82  A    between atoms: _204  and  _205
REMARK   83  A    between atoms: _208  and  _210
REMARK   84  A    between atoms: _210  and  _211
REMARK   85  A    between atoms: _210  and  _213
REMARK   86  A    between atoms: _213  and  _214
REMARK   87  A    between atoms: _217  and  _219
REMARK   88  A    between atoms: _219  and  _220
REMARK   89  A    between atoms: _219  and  _222
REMARK   90  A    between atoms: _226  and  _227
REMARK   91  A    between atoms: _232  and  _234
REMARK   92  A    between atoms: _234  and  _235
REMARK   93  A    between atoms: _234  and  _237
REMARK   94  A    between atoms: _237  and  _238
REMARK   95  A    between atoms: _238  and  _239
REMARK   96  A    between atoms: _242  and  _244
REMARK   97  A    between atoms: _244  and  _245
REMARK   98  A    between atoms: _244  and  _247
REMARK   99  A    between atoms: _247  and  _248
REMARK  100  A    between atoms: _251  and  _253
REMARK  101  A    between atoms: _253  and  _254
REMARK  102  A    between atoms: _257  and  _259
REMARK  103  A    between atoms: _259  and  _260
REMARK  104  A    between atoms: _259  and  _262
REMARK  105  A    between atoms: _262  and  _263
REMARK  106  A    between atoms: _265  and  _267
REMARK  107  A    between atoms: _267  and  _268
REMARK  108  A    between atoms: _270  and  _272
REMARK  109  A    between atoms: _272  and  _273
REMARK  110  A    between atoms: _275  and  _277
REMARK  111  A    between atoms: _277  and  _278
REMARK  112  A    between atoms: _282  and  _283
REMARK  113  A    between atoms: _288  and  _290
REMARK  114  A    between atoms: _290  and  _291
REMARK  115  A    between atoms: _290  and  _293
REMARK  116  A    between atoms: _293  and  _294
REMARK  117  A    between atoms: _297  and  _299
REMARK  118  A    between atoms: _299  and  _300
REMARK  119  A    between atoms: _299  and  _302
REMARK  120  A    between atoms: _302  and  _303
REMARK  121  A    between atoms: _305  and  _307
REMARK  122  A    between atoms: _307  and  _308
REMARK  123  A    between atoms: _307  and  _310
REMARK  124  A    between atoms: _310  and  _311
REMARK  125  A    between atoms: _311  and  _312
REMARK  126  A    between atoms: _312  and  _313
REMARK  127  A    between atoms: _322  and  _324
REMARK  128  A    between atoms: _324  and  _325
REMARK  129  A    between atoms: _324  and  _327
REMARK  130  A    between atoms: _327  and  _328
REMARK  131  A    between atoms: _328  and  _329
REMARK  132  A    between atoms: _334  and  _336
REMARK  133  A    between atoms: _336  and  _337
REMARK  134  A    between atoms: _339  and  _341
REMARK  135  A    between atoms: _341  and  _342
REMARK  136  A    between atoms: _341  and  _344
REMARK  137  A    between atoms: _344  and  _345
REMARK  138  A    between atoms: _350  and  _351
REMARK  139  A    between atoms: _353  and  _355
REMARK  140  A    between atoms: _355  and  _356
REMARK  141  A    between atoms: _358  and  _360
REMARK  142  A    between atoms: _360  and  _361
REMARK  143  A    between atoms: _360  and  _363
REMARK  144  A    between atoms: _363  and  _364
REMARK  145  A    between atoms: _367  and  _369
REMARK  146  A    between atoms: _369  and  _370
REMARK  147  A    between atoms: _369  and  _372
REMARK  148  A    between atoms: _372  and  _373
REMARK  149  A    between atoms: _376  and  _378
REMARK  150  A    between atoms: _378  and  _379
REMARK  151  A    between atoms: _378  and  _381
REMARK  152  A    between atoms: _381  and  _382
REMARK  153  A    between atoms: _382  and  _383
REMARK  154  A    between atoms: _386  and  _388
REMARK  155  A    between atoms: _388  and  _389
REMARK  156  A    between atoms: _388  and  _391
REMARK  157  A    between atoms: _391  and  _392
REMARK  158  A    between atoms: _395  and  _397
REMARK  159  A    between atoms: _397  and  _398
REMARK  160  A    between atoms: _397  and  _400
REMARK  161  A    between atoms: _400  and  _401
REMARK  162  A    between atoms: _404  and  _406
REMARK  163  A    between atoms: _406  and  _407
REMARK  164  A    between atoms: _406  and  _409
REMARK  165  A    between atoms: _409  and  _410
REMARK  166  A    between atoms: _412  and  _414
REMARK  167  A    between atoms: _414  and  _415
REMARK  168  A    between atoms: _418  and  _420
REMARK  169  A    between atoms: _420  and  _421
REMARK  170  A    between atoms: _420  and  _423
REMARK  171  A    between atoms: _423  and  _424
REMARK  172  A    between atoms: _427  and  _429
REMARK  173  A    between atoms: _429  and  _430
REMARK  174  A    between atoms: _429  and  _432
REMARK  175  A    between atoms: _432  and  _433
REMARK  176  A    between atoms: _436  and  _438
REMARK  177  A    between atoms: _438  and  _439
REMARK  178  A    between atoms: _438  and  _441
REMARK  179  A    between atoms: _441  and  _442
REMARK  180  A    between atoms: _445  and  _447
REMARK  181  A    between atoms: _447  and  _448
REMARK  182  A    between atoms: _447  and  _450
REMARK  183  A    between atoms: _450  and  _451
REMARK  184  A    between atoms: _454  and  _456
REMARK  185  A    between atoms: _456  and  _457
REMARK  186  A    between atoms: _459  and  _461
REMARK  187  A    between atoms: _461  and  _462
REMARK  188  A    between atoms: _465  and  _467
REMARK  189  A    between atoms: _467  and  _468
REMARK  190  A    between atoms: _467  and  _470
REMARK  191  A    between atoms: _473  and  _475
REMARK  192  A    between atoms: _475  and  _476
REMARK  193  A    between atoms: _478  and  _480
REMARK  194  A    between atoms: _480  and  _481
REMARK  195  A    between atoms: _480  and  _483
REMARK  196  A    between atoms: _486  and  _488
REMARK  197  A    between atoms: _488  and  _489
REMARK  198  A    between atoms: _488  and  _491
REMARK  199  A    between atoms: _491  and  _492
REMARK  200  A    between atoms: _495  and  _497
REMARK  201  A    between atoms: _497  and  _498
REMARK  202  A    between atoms: _497  and  _500
REMARK  203  A    between atoms: _500  and  _501
REMARK  204  A    between atoms: _501  and  _502
REMARK  205  A    between atoms: _504  and  _506
REMARK  206  A    between atoms: _506  and  _507
REMARK  207  A    between atoms: _506  and  _509
REMARK  208  A    between atoms: _509  and  _510
REMARK  209  A    between atoms: _515  and  _516
REMARK  210  A    between atoms: _518  and  _520
REMARK  211  A    between atoms: _520  and  _521
REMARK  212  A    between atoms: _520  and  _523
REMARK  213  A    between atoms: _523  and  _524
REMARK  214  A    between atoms: _527  and  _529
REMARK  215  A    between atoms: _529  and  _530
REMARK  216  A    between atoms: _529  and  _532
REMARK  217  A    between atoms: _532  and  _533
REMARK  218  A    between atoms: _538  and  _540
REMARK  219  A    between atoms: _540  and  _541
REMARK  220  A    between atoms: _540  and  _543
REMARK  221  A    between atoms: _543  and  _544
REMARK  222  A    between atoms: _546  and  _548
REMARK  223  A    between atoms: _548  and  _549
REMARK  224  A    between atoms: _551  and  _553
REMARK  225  A    between atoms: _553  and  _554
REMARK  226  A    between atoms: _553  and  _556
REMARK  227  A    between atoms: _556  and  _557
REMARK  228  A    between atoms: _560  and  _562
REMARK  229  A    between atoms: _562  and  _563
REMARK  230  A    between atoms: _562  and  _565
REMARK  231  A    between atoms: _565  and  _566
REMARK  232  A    between atoms: _569  and  _571
REMARK  233  A    between atoms: _571  and  _572
REMARK  234  A    between atoms: _571  and  _574
REMARK  235  A    between atoms: _574  and  _575
REMARK  236  A    between atoms: _581  and  _583
REMARK  237  A    between atoms: _583  and  _584
REMARK  238  A    between atoms: _583  and  _586
REMARK  239  A    between atoms: _586  and  _587
REMARK  240  A    between atoms: _590  and  _592
REMARK  241  A    between atoms: _592  and  _593
REMARK  242  A    between atoms: _592  and  _595
REMARK  243  A    between atoms: _598  and  _600
REMARK  244  A    between atoms: _600  and  _601
REMARK  245  A    between atoms: _600  and  _603
REMARK  246  A    between atoms: _603  and  _604
REMARK  247  A    between atoms: _607  and  _609
REMARK  248  A    between atoms: _609  and  _610
REMARK  249  A    between atoms: _609  and  _612
REMARK  250  A    between atoms: _612  and  _613
REMARK  251  A    between atoms: _613  and  _614
REMARK  252  A    between atoms: _614  and  _615
REMARK  253  A    between atoms: _624  and  _626
REMARK  254  A    between atoms: _626  and  _627
REMARK  255  A    between atoms: _626  and  _629
REMARK  256  A    between atoms: _629  and  _630
REMARK                            x       y       z     vdW  Elec       q    Type
REMARK                         _______ _______ _______ _____ _____    ______ ____
ROOT
ATOM      1  O   HOH     1     -27.965   2.636  -4.711  0.00  0.00    +0.000 OA
ENDROOT
TORSDOF 0
REMARK  Name = ../refined-set-2016/3ies/3ies_pocket.pdb
REMARK  256 active torsions:
REMARK  status: ('A' for Active; 'I' for Inactive)
REMARK    1  A    between atoms: _1  and  _3
REMARK    2  A    between atoms: _3  and  _4
REMARK    3  A    between atoms: _3  and  _6
REMARK    4  A    between atoms: _6  and  _7
REMARK    5  A    between atoms: _7  and  _8
REMARK    6  A    between atoms: _10  and  _12
REMARK    7  A    between atoms: _12  and  _13
REMARK    8  A    between atoms: _12  and  _15
REMARK    9  A    between atoms: _15  and  _16
REMARK   10  A    between atoms: _21  and  _23
REMARK   11  A    between atoms: _23  and  _24
REMARK   12  A    between atoms: _23  and  _26
REMARK   13  A    between atoms: _26  and  _27
REMARK   14  A    between atoms: _29  and  _31
REMARK   15  A    between atoms: _31  and  _32
REMARK   16  A    between atoms: _31  and  _34
REMARK   17  A    between atoms: _37  and  _39
REMARK   18  A    between atoms: _39  and  _40
REMARK   19  A    between atoms: _39  and  _42
REMARK   20  A    between atoms: _42  and  _43
REMARK   21  A    between atoms: _43  and  _44
REMARK   22  A    between atoms: _44  and  _45
REMARK   23  A    between atoms: _54  and  _56
REMARK   24  A    between atoms: _56  and  _57
REMARK   25  A    between atoms: _56  and  _59
REMARK   26  A    between atoms: _59  and  _60
REMARK   27  A    between atoms: _65  and  _67
REMARK   28  A    between atoms: _67  and  _68
REMARK   29  A    between atoms: _71  and  _73
REMARK   30  A    between atoms: _73  and  _74
REMARK   31  A    between atoms: _73  and  _76
REMARK   32  A    between atoms: _76  and  _77
REMARK   33  A    between atoms: _83  and  _85
REMARK   34  A    between atoms: _85  and  _86
REMARK   35  A    between atoms: _88  and  _90
REMARK   36  A    between atoms: _90  and  _91
REMARK   37  A    between atoms: _90  and  _93
REMARK   38  A    between atoms: _93  and  _94
REMARK   39  A    between atoms: _99  and  _101
REMARK   40  A    between atoms: _101  and  _102
REMARK   41  A    between atoms: _101  and  _104
REMARK   42  A    between atoms: _104  and  _105
REMARK   43  A    between atoms: _110  and  _112
REMARK   44  A    between atoms: _112  and  _113
REMARK   45  A    between atoms: _115  and  _117
REMARK   46  A    between atoms: _117  and  _118
REMARK   47  A    between atoms: _117  and  _120
REMARK   48  A    between atoms: _120  and  _121
REMARK   49  A    between atoms: _127  and  _129
REMARK   50  A    between atoms: _129  and  _130
REMARK   51  A    between atoms: _132  and  _134
REMARK   52  A    between atoms: _134  and  _135
REMARK   53  A    between atoms: _134  and  _137
REMARK   54  A    between atoms: _137  and  _138
REMARK   55  A    between atoms: _138  and  _139
REMARK   56  A    between atoms: _141  and  _143
REMARK   57  A    between atoms: _143  and  _144
REMARK   58  A    between atoms: _143  and  _146
REMARK   59  A    between atoms: _146  and  _147
REMARK   60  A    between atoms: _153  and  _155
REMARK   61  A    between atoms: _155  and  _156
REMARK   62  A    between atoms: _155  and  _158
REMARK   63  A    between atoms: _158  and  _159
REMARK   64  A    between atoms: _162  and  _164
REMARK   65  A    between atoms: _164  and  _165
REMARK   66  A    between atoms: _164  and  _167
REMARK   67  A    between atoms: _167  and  _168
REMARK   68  A    between atoms: _171  and  _173
REMARK   69  A    between atoms: _173  and  _174
REMARK   70  A    between atoms: _173  and  _176
REMARK   71  A    between atoms: _176  and  _177
REMARK   72  A    between atoms: _182  and  _183
REMARK   73  A    between atoms: _185  and  _187
REMARK   74  A    between atoms: _187  and  _188
REMARK   75  A    between atoms: _187  and  _190
REMARK   76  A    between atoms: _190  and  _191
REMARK   77  A    between atoms: _193  and  _195
REMARK   78  A    between atoms: _195  and  _196
REMARK   79  A    between atoms: _199  and  _201
REMARK   80  A    between atoms: _201  and  _202
REMARK   81  A    between atoms: _201  and  _204
REMARK   82  A    between atoms: _204  and  _205
REMARK   83  A    between atoms: _208  and  _210
REMARK   84  A    between atoms: _210  and  _211
REMARK   85  A    between atoms: _210  and  _213
REMARK   86  A    between atoms: _213  and  _214
REMARK   87  A    between atoms: _217  and  _219
REMARK   88  A    between atoms: _219  and  _220
REMARK   89  A    between atoms: _219  and  _222
REMARK   90  A    between atoms: _226  and  _227
REMARK   91  A    between atoms: _232  and  _234
REMARK   92  A    between atoms: _234  and  _235
REMARK   93  A    between atoms: _234  and  _237
REMARK   94  A    between atoms: _237  and  _238
REMARK   95  A    between atoms: _238  and  _239
REMARK   96  A    between atoms: _242  and  _244
REMARK   97  A    between atoms: _244  and  _245
REMARK   98  A    between atoms: _244  and  _247
REMARK   99  A    between atoms: _247  and  _248
REMARK  100  A    between atoms: _251  and  _253
REMARK  101  A    between atoms: _253  and  _254
REMARK  102  A    between atoms: _257  and  _259
REMARK  103  A    between atoms: _259  and  _260
REMARK  104  A    between atoms: _259  and  _262
REMARK  105  A    between atoms: _262  and  _263
REMARK  106  A    between atoms: _265  and  _267
REMARK  107  A    between atoms: _267  and  _268
REMARK  108  A    between atoms: _270  and  _272
REMARK  109  A    between atoms: _272  and  _273
REMARK  110  A    between atoms: _275  and  _277
REMARK  111  A    between atoms: _277  and  _278
REMARK  112  A    between atoms: _282  and  _283
REMARK  113  A    between atoms: _288  and  _290
REMARK  114  A    between atoms: _290  and  _291
REMARK  115  A    between atoms: _290  and  _293
REMARK  116  A    between atoms: _293  and  _294
REMARK  117  A    between atoms: _297  and  _299
REMARK  118  A    between atoms: _299  and  _300
REMARK  119  A    between atoms: _299  and  _302
REMARK  120  A    between atoms: _302  and  _303
REMARK  121  A    between atoms: _305  and  _307
REMARK  122  A    between atoms: _307  and  _308
REMARK  123  A    between atoms: _307  and  _310
REMARK  124  A    between atoms: _310  and  _311
REMARK  125  A    between atoms: _311  and  _312
REMARK  126  A    between atoms: _312  and  _313
REMARK  127  A    between atoms: _322  and  _324
REMARK  128  A    between atoms: _324  and  _325
REMARK  129  A    between atoms: _324  and  _327
REMARK  130  A    between atoms: _327  and  _328
REMARK  131  A    between atoms: _328  and  _329
REMARK  132  A    between atoms: _334  and  _336
REMARK  133  A    between atoms: _336  and  _337
REMARK  134  A    between atoms: _339  and  _341
REMARK  135  A    between atoms: _341  and  _342
REMARK  136  A    between atoms: _341  and  _344
REMARK  137  A    between atoms: _344  and  _345
REMARK  138  A    between atoms: _350  and  _351
REMARK  139  A    between atoms: _353  and  _355
REMARK  140  A    between atoms: _355  and  _356
REMARK  141  A    between atoms: _358  and  _360
REMARK  142  A    between atoms: _360  and  _361
REMARK  143  A    between atoms: _360  and  _363
REMARK  144  A    between atoms: _363  and  _364
REMARK  145  A    between atoms: _367  and  _369
REMARK  146  A    between atoms: _369  and  _370
REMARK  147  A    between atoms: _369  and  _372
REMARK  148  A    between atoms: _372  and  _373
REMARK  149  A    between atoms: _376  and  _378
REMARK  150  A    between atoms: _378  and  _379
REMARK  151  A    between atoms: _378  and  _381
REMARK  152  A    between atoms: _381  and  _382
REMARK  153  A    between atoms: _382  and  _383
REMARK  154  A    between atoms: _386  and  _388
REMARK  155  A    between atoms: _388  and  _389
REMARK  156  A    between atoms: _388  and  _391
REMARK  157  A    between atoms: _391  and  _392
REMARK  158  A    between atoms: _395  and  _397
REMARK  159  A    between atoms: _397  and  _398
REMARK  160  A    between atoms: _397  and  _400
REMARK  161  A    between atoms: _400  and  _401
REMARK  162  A    between atoms: _404  and  _406
REMARK  163  A    between atoms: _406  and  _407
REMARK  164  A    between atoms: _406  and  _409
REMARK  165  A    between atoms: _409  and  _410
REMARK  166  A    between atoms: _412  and  _414
REMARK  167  A    between atoms: _414  and  _415
REMARK  168  A    between atoms: _418  and  _420
REMARK  169  A    between atoms: _420  and  _421
REMARK  170  A    between atoms: _420  and  _423
REMARK  171  A    between atoms: _423  and  _424
REMARK  172  A    between atoms: _427  and  _429
REMARK  173  A    between atoms: _429  and  _430
REMARK  174  A    between atoms: _429  and  _432
REMARK  175  A    between atoms: _432  and  _433
REMARK  176  A    between atoms: _436  and  _438
REMARK  177  A    between atoms: _438  and  _439
REMARK  178  A    between atoms: _438  and  _441
REMARK  179  A    between atoms: _441  and  _442
REMARK  180  A    between atoms: _445  and  _447
REMARK  181  A    between atoms: _447  and  _448
REMARK  182  A    between atoms: _447  and  _450
REMARK  183  A    between atoms: _450  and  _451
REMARK  184  A    between atoms: _454  and  _456
REMARK  185  A    between atoms: _456  and  _457
REMARK  186  A    between atoms: _459  and  _461
REMARK  187  A    between atoms: _461  and  _462
REMARK  188  A    between atoms: _465  and  _467
REMARK  189  A    between atoms: _467  and  _468
REMARK  190  A    between atoms: _467  and  _470
REMARK  191  A    between atoms: _473  and  _475
REMARK  192  A    between atoms: _475  and  _476
REMARK  193  A    between atoms: _478  and  _480
REMARK  194  A    between atoms: _480  and  _481
REMARK  195  A    between atoms: _480  and  _483
REMARK  196  A    between atoms: _486  and  _488
REMARK  197  A    between atoms: _488  and  _489
REMARK  198  A    between atoms: _488  and  _491
REMARK  199  A    between atoms: _491  and  _492
REMARK  200  A    between atoms: _495  and  _497
REMARK  201  A    between atoms: _497  and  _498
REMARK  202  A    between atoms: _497  and  _500
REMARK  203  A    between atoms: _500  and  _501
REMARK  204  A    between atoms: _501  and  _502
REMARK  205  A    between atoms: _504  and  _506
REMARK  206  A    between atoms: _506  and  _507
REMARK  207  A    between atoms: _506  and  _509
REMARK  208  A    between atoms: _509  and  _510
REMARK  209  A    between atoms: _515  and  _516
REMARK  210  A    between atoms: _518  and  _520
REMARK  211  A    between atoms: _520  and  _521
REMARK  212  A    between atoms: _520  and  _523
REMARK  213  A    between atoms: _523  and  _524
REMARK  214  A    between atoms: _527  and  _529
REMARK  215  A    between atoms: _529  and  _530
REMARK  216  A    between atoms: _529  and  _532
REMARK  217  A    between atoms: _532  and  _533
REMARK  218  A    between atoms: _538  and  _540
REMARK  219  A    between atoms: _540  and  _541
REMARK  220  A    between atoms: _540  and  _543
REMARK  221  A    between atoms: _543  and  _544
REMARK  222  A    between atoms: _546  and  _548
REMARK  223  A    between atoms: _548  and  _549
REMARK  224  A    between atoms: _551  and  _553
REMARK  225  A    between atoms: _553  and  _554
REMARK  226  A    between atoms: _553  and  _556
REMARK  227  A    between atoms: _556  and  _557
REMARK  228  A    between atoms: _560  and  _562
REMARK  229  A    between atoms: _562  and  _563
REMARK  230  A    between atoms: _562  and  _565
REMARK  231  A    between atoms: _565  and  _566
REMARK  232  A    between atoms: _569  and  _571
REMARK  233  A    between atoms: _571  and  _572
REMARK  234  A    between atoms: _571  and  _574
REMARK  235  A    between atoms: _574  and  _575
REMARK  236  A    between atoms: _581  and  _583
REMARK  237  A    between atoms: _583  and  _584
REMARK  238  A    between atoms: _583  and  _586
REMARK  239  A    between atoms: _586  and  _587
REMARK  240  A    between atoms: _590  and  _592
REMARK  241  A    between atoms: _592  and  _593
REMARK  242  A    between atoms: _592  and  _595
REMARK  243  A    between atoms: _598  and  _600
REMARK  244  A    between atoms: _600  and  _601
REMARK  245  A    between atoms: _600  and  _603
REMARK  246  A    between atoms: _603  and  _604
REMARK  247  A    between atoms: _607  and  _609
REMARK  248  A    between atoms: _609  and  _610
REMARK  249  A    between atoms: _609  and  _612
REMARK  250  A    between atoms: _612  and  _613
REMARK  251  A    between atoms: _613  and  _614
REMARK  252  A    between atoms: _614  and  _615
REMARK  253  A    between atoms: _624  and  _626
REMARK  254  A    between atoms: _626  and  _627
REMARK  255  A    between atoms: _626  and  _629
REMARK  256  A    between atoms: _629  and  _630
REMARK                            x       y       z     vdW  Elec       q    Type
REMARK                         _______ _______ _______ _____ _____    ______ ____
ROOT
ATOM      1  O   HOH     1     -32.671   4.029 -21.103  0.00  0.00    +0.000 OA
ENDROOT
TORSDOF 0
REMARK  Name = ../refined-set-2016/3ies/3ies_pocket.pdb
REMARK  256 active torsions:
REMARK  status: ('A' for Active; 'I' for Inactive)
REMARK    1  A    between atoms: _1  and  _3
REMARK    2  A    between atoms: _3  and  _4
REMARK    3  A    between atoms: _3  and  _6
REMARK    4  A    between atoms: _6  and  _7
REMARK    5  A    between atoms: _7  and  _8
REMARK    6  A    between atoms: _10  and  _12
REMARK    7  A    between atoms: _12  and  _13
REMARK    8  A    between atoms: _12  and  _15
REMARK    9  A    between atoms: _15  and  _16
REMARK   10  A    between atoms: _21  and  _23
REMARK   11  A    between atoms: _23  and  _24
REMARK   12  A    between atoms: _23  and  _26
REMARK   13  A    between atoms: _26  and  _27
REMARK   14  A    between atoms: _29  and  _31
REMARK   15  A    between atoms: _31  and  _32
REMARK   16  A    between atoms: _31  and  _34
REMARK   17  A    between atoms: _37  and  _39
REMARK   18  A    between atoms: _39  and  _40
REMARK   19  A    between atoms: _39  and  _42
REMARK   20  A    between atoms: _42  and  _43
REMARK   21  A    between atoms: _43  and  _44
REMARK   22  A    between atoms: _44  and  _45
REMARK   23  A    between atoms: _54  and  _56
REMARK   24  A    between atoms: _56  and  _57
REMARK   25  A    between atoms: _56  and  _59
REMARK   26  A    between atoms: _59  and  _60
REMARK   27  A    between atoms: _65  and  _67
REMARK   28  A    between atoms: _67  and  _68
REMARK   29  A    between atoms: _71  and  _73
REMARK   30  A    between atoms: _73  and  _74
REMARK   31  A    between atoms: _73  and  _76
REMARK   32  A    between atoms: _76  and  _77
REMARK   33  A    between atoms: _83  and  _85
REMARK   34  A    between atoms: _85  and  _86
REMARK   35  A    between atoms: _88  and  _90
REMARK   36  A    between atoms: _90  and  _91
REMARK   37  A    between atoms: _90  and  _93
REMARK   38  A    between atoms: _93  and  _94
REMARK   39  A    between atoms: _99  and  _101
REMARK   40  A    between atoms: _101  and  _102
REMARK   41  A    between atoms: _101  and  _104
REMARK   42  A    between atoms: _104  and  _105
REMARK   43  A    between atoms: _110  and  _112
REMARK   44  A    between atoms: _112  and  _113
REMARK   45  A    between atoms: _115  and  _117
REMARK   46  A    between atoms: _117  and  _118
REMARK   47  A    between atoms: _117  and  _120
REMARK   48  A    between atoms: _120  and  _121
REMARK   49  A    between atoms: _127  and  _129
REMARK   50  A    between atoms: _129  and  _130
REMARK   51  A    between atoms: _132  and  _134
REMARK   52  A    between atoms: _134  and  _135
REMARK   53  A    between atoms: _134  and  _137
REMARK   54  A    between atoms: _137  and  _138
REMARK   55  A    between atoms: _138  and  _139
REMARK   56  A    between atoms: _141  and  _143
REMARK   57  A    between atoms: _143  and  _144
REMARK   58  A    between atoms: _143  and  _146
REMARK   59  A    between atoms: _146  and  _147
REMARK   60  A    between atoms: _153  and  _155
REMARK   61  A    between atoms: _155  and  _156
REMARK   62  A    between atoms: _155  and  _158
REMARK   63  A    between atoms: _158  and  _159
REMARK   64  A    between atoms: _162  and  _164
REMARK   65  A    between atoms: _164  and  _165
REMARK   66  A    between atoms: _164  and  _167
REMARK   67  A    between atoms: _167  and  _168
REMARK   68  A    between atoms: _171  and  _173
REMARK   69  A    between atoms: _173  and  _174
REMARK   70  A    between atoms: _173  and  _176
REMARK   71  A    between atoms: _176  and  _177
REMARK   72  A    between atoms: _182  and  _183
REMARK   73  A    between atoms: _185  and  _187
REMARK   74  A    between atoms: _187  and  _188
REMARK   75  A    between atoms: _187  and  _190
REMARK   76  A    between atoms: _190  and  _191
REMARK   77  A    between atoms: _193  and  _195
REMARK   78  A    between atoms: _195  and  _196
REMARK   79  A    between atoms: _199  and  _201
REMARK   80  A    between atoms: _201  and  _202
REMARK   81  A    between atoms: _201  and  _204
REMARK   82  A    between atoms: _204  and  _205
REMARK   83  A    between atoms: _208  and  _210
REMARK   84  A    between atoms: _210  and  _211
REMARK   85  A    between atoms: _210  and  _213
REMARK   86  A    between atoms: _213  and  _214
REMARK   87  A    between atoms: _217  and  _219
REMARK   88  A    between atoms: _219  and  _220
REMARK   89  A    between atoms: _219  and  _222
REMARK   90  A    between atoms: _226  and  _227
REMARK   91  A    between atoms: _232  and  _234
REMARK   92  A    between atoms: _234  and  _235
REMARK   93  A    between atoms: _234  and  _237
REMARK   94  A    between atoms: _237  and  _238
REMARK   95  A    between atoms: _238  and  _239
REMARK   96  A    between atoms: _242  and  _244
REMARK   97  A    between atoms: _244  and  _245
REMARK   98  A    between atoms: _244  and  _247
REMARK   99  A    between atoms: _247  and  _248
REMARK  100  A    between atoms: _251  and  _253
REMARK  101  A    between atoms: _253  and  _254
REMARK  102  A    between atoms: _257  and  _259
REMARK  103  A    between atoms: _259  and  _260
REMARK  104  A    between atoms: _259  and  _262
REMARK  105  A    between atoms: _262  and  _263
REMARK  106  A    between atoms: _265  and  _267
REMARK  107  A    between atoms: _267  and  _268
REMARK  108  A    between atoms: _270  and  _272
REMARK  109  A    between atoms: _272  and  _273
REMARK  110  A    between atoms: _275  and  _277
REMARK  111  A    between atoms: _277  and  _278
REMARK  112  A    between atoms: _282  and  _283
REMARK  113  A    between atoms: _288  and  _290
REMARK  114  A    between atoms: _290  and  _291
REMARK  115  A    between atoms: _290  and  _293
REMARK  116  A    between atoms: _293  and  _294
REMARK  117  A    between atoms: _297  and  _299
REMARK  118  A    between atoms: _299  and  _300
REMARK  119  A    between atoms: _299  and  _302
REMARK  120  A    between atoms: _302  and  _303
REMARK  121  A    between atoms: _305  and  _307
REMARK  122  A    between atoms: _307  and  _308
REMARK  123  A    between atoms: _307  and  _310
REMARK  124  A    between atoms: _310  and  _311
REMARK  125  A    between atoms: _311  and  _312
REMARK  126  A    between atoms: _312  and  _313
REMARK  127  A    between atoms: _322  and  _324
REMARK  128  A    between atoms: _324  and  _325
REMARK  129  A    between atoms: _324  and  _327
REMARK  130  A    between atoms: _327  and  _328
REMARK  131  A    between atoms: _328  and  _329
REMARK  132  A    between atoms: _334  and  _336
REMARK  133  A    between atoms: _336  and  _337
REMARK  134  A    between atoms: _339  and  _341
REMARK  135  A    between atoms: _341  and  _342
REMARK  136  A    between atoms: _341  and  _344
REMARK  137  A    between atoms: _344  and  _345
REMARK  138  A    between atoms: _350  and  _351
REMARK  139  A    between atoms: _353  and  _355
REMARK  140  A    between atoms: _355  and  _356
REMARK  141  A    between atoms: _358  and  _360
REMARK  142  A    between atoms: _360  and  _361
REMARK  143  A    between atoms: _360  and  _363
REMARK  144  A    between atoms: _363  and  _364
REMARK  145  A    between atoms: _367  and  _369
REMARK  146  A    between atoms: _369  and  _370
REMARK  147  A    between atoms: _369  and  _372
REMARK  148  A    between atoms: _372  and  _373
REMARK  149  A    between atoms: _376  and  _378
REMARK  150  A    between atoms: _378  and  _379
REMARK  151  A    between atoms: _378  and  _381
REMARK  152  A    between atoms: _381  and  _382
REMARK  153  A    between atoms: _382  and  _383
REMARK  154  A    between atoms: _386  and  _388
REMARK  155  A    between atoms: _388  and  _389
REMARK  156  A    between atoms: _388  and  _391
REMARK  157  A    between atoms: _391  and  _392
REMARK  158  A    between atoms: _395  and  _397
REMARK  159  A    between atoms: _397  and  _398
REMARK  160  A    between atoms: _397  and  _400
REMARK  161  A    between atoms: _400  and  _401
REMARK  162  A    between atoms: _404  and  _406
REMARK  163  A    between atoms: _406  and  _407
REMARK  164  A    between atoms: _406  and  _409
REMARK  165  A    between atoms: _409  and  _410
REMARK  166  A    between atoms: _412  and  _414
REMARK  167  A    between atoms: _414  and  _415
REMARK  168  A    between atoms: _418  and  _420
REMARK  169  A    between atoms: _420  and  _421
REMARK  170  A    between atoms: _420  and  _423
REMARK  171  A    between atoms: _423  and  _424
REMARK  172  A    between atoms: _427  and  _429
REMARK  173  A    between atoms: _429  and  _430
REMARK  174  A    between atoms: _429  and  _432
REMARK  175  A    between atoms: _432  and  _433
REMARK  176  A    between atoms: _436  and  _438
REMARK  177  A    between atoms: _438  and  _439
REMARK  178  A    between atoms: _438  and  _441
REMARK  179  A    between atoms: _441  and  _442
REMARK  180  A    between atoms: _445  and  _447
REMARK  181  A    between atoms: _447  and  _448
REMARK  182  A    between atoms: _447  and  _450
REMARK  183  A    between atoms: _450  and  _451
REMARK  184  A    between atoms: _454  and  _456
REMARK  185  A    between atoms: _456  and  _457
REMARK  186  A    between atoms: _459  and  _461
REMARK  187  A    between atoms: _461  and  _462
REMARK  188  A    between atoms: _465  and  _467
REMARK  189  A    between atoms: _467  and  _468
REMARK  190  A    between atoms: _467  and  _470
REMARK  191  A    between atoms: _473  and  _475
REMARK  192  A    between atoms: _475  and  _476
REMARK  193  A    between atoms: _478  and  _480
REMARK  194  A    between atoms: _480  and  _481
REMARK  195  A    between atoms: _480  and  _483
REMARK  196  A    between atoms: _486  and  _488
REMARK  197  A    between atoms: _488  and  _489
REMARK  198  A    between atoms: _488  and  _491
REMARK  199  A    between atoms: _491  and  _492
REMARK  200  A    between atoms: _495  and  _497
REMARK  201  A    between atoms: _497  and  _498
REMARK  202  A    between atoms: _497  and  _500
REMARK  203  A    between atoms: _500  and  _501
REMARK  204  A    between atoms: _501  and  _502
REMARK  205  A    between atoms: _504  and  _506
REMARK  206  A    between atoms: _506  and  _507
REMARK  207  A    between atoms: _506  and  _509
REMARK  208  A    between atoms: _509  and  _510
REMARK  209  A    between atoms: _515  and  _516
REMARK  210  A    between atoms: _518  and  _520
REMARK  211  A    between atoms: _520  and  _521
REMARK  212  A    between atoms: _520  and  _523
REMARK  213  A    between atoms: _523  and  _524
REMARK  214  A    between atoms: _527  and  _529
REMARK  215  A    between atoms: _529  and  _530
REMARK  216  A    between atoms: _529  and  _532
REMARK  217  A    between atoms: _532  and  _533
REMARK  218  A    between atoms: _538  and  _540
REMARK  219  A    between atoms: _540  and  _541
REMARK  220  A    between atoms: _540  and  _543
REMARK  221  A    between atoms: _543  and  _544
REMARK  222  A    between atoms: _546  and  _548
REMARK  223  A    between atoms: _548  and  _549
REMARK  224  A    between atoms: _551  and  _553
REMARK  225  A    between atoms: _553  and  _554
REMARK  226  A    between atoms: _553  and  _556
REMARK  227  A    between atoms: _556  and  _557
REMARK  228  A    between atoms: _560  and  _562
REMARK  229  A    between atoms: _562  and  _563
REMARK  230  A    between atoms: _562  and  _565
REMARK  231  A    between atoms: _565  and  _566
REMARK  232  A    between atoms: _569  and  _571
REMARK  233  A    between atoms: _571  and  _572
REMARK  234  A    between atoms: _571  and  _574
REMARK  235  A    between atoms: _574  and  _575
REMARK  236  A    between atoms: _581  and  _583
REMARK  237  A    between atoms: _583  and  _584
REMARK  238  A    between atoms: _583  and  _586
REMARK  239  A    between atoms: _586  and  _587
REMARK  240  A    between atoms: _590  and  _592
REMARK  241  A    between atoms: _592  and  _593
REMARK  242  A    between atoms: _592  and  _595
REMARK  243  A    between atoms: _598  and  _600
REMARK  244  A    between atoms: _600  and  _601
REMARK  245  A    between atoms: _600  and  _603
REMARK  246  A    between atoms: _603  and  _604
REMARK  247  A    between atoms: _607  and  _609
REMARK  248  A    between atoms: _609  and  _610
REMARK  249  A    between atoms: _609  and  _612
REMARK  250  A    between atoms: _612  and  _613
REMARK  251  A    between atoms: _613  and  _614
REMARK  252  A    between atoms: _614  and  _615
REMARK  253  A    between atoms: _624  and  _626
REMARK  254  A    between atoms: _626  and  _627
REMARK  255  A    between atoms: _626  and  _629
REMARK  256  A    between atoms: _629  and  _630
REMARK                            x       y       z     vdW  Elec       q    Type
REMARK                         _______ _______ _______ _____ _____    ______ ____
ROOT
ATOM      1  O   HOH     1     -27.106  11.555 -10.582  0.00  0.00    +0.000 OA
ENDROOT
TORSDOF 0
REMARK  Name = ../refined-set-2016/3ies/3ies_pocket.pdb
REMARK  256 active torsions:
REMARK  status: ('A' for Active; 'I' for Inactive)
REMARK    1  A    between atoms: _1  and  _3
REMARK    2  A    between atoms: _3  and  _4
REMARK    3  A    between atoms: _3  and  _6
REMARK    4  A    between atoms: _6  and  _7
REMARK    5  A    between atoms: _7  and  _8
REMARK    6  A    between atoms: _10  and  _12
REMARK    7  A    between atoms: _12  and  _13
REMARK    8  A    between atoms: _12  and  _15
REMARK    9  A    between atoms: _15  and  _16
REMARK   10  A    between atoms: _21  and  _23
REMARK   11  A    between atoms: _23  and  _24
REMARK   12  A    between atoms: _23  and  _26
REMARK   13  A    between atoms: _26  and  _27
REMARK   14  A    between atoms: _29  and  _31
REMARK   15  A    between atoms: _31  and  _32
REMARK   16  A    between atoms: _31  and  _34
REMARK   17  A    between atoms: _37  and  _39
REMARK   18  A    between atoms: _39  and  _40
REMARK   19  A    between atoms: _39  and  _42
REMARK   20  A    between atoms: _42  and  _43
REMARK   21  A    between atoms: _43  and  _44
REMARK   22  A    between atoms: _44  and  _45
REMARK   23  A    between atoms: _54  and  _56
REMARK   24  A    between atoms: _56  and  _57
REMARK   25  A    between atoms: _56  and  _59
REMARK   26  A    between atoms: _59  and  _60
REMARK   27  A    between atoms: _65  and  _67
REMARK   28  A    between atoms: _67  and  _68
REMARK   29  A    between atoms: _71  and  _73
REMARK   30  A    between atoms: _73  and  _74
REMARK   31  A    between atoms: _73  and  _76
REMARK   32  A    between atoms: _76  and  _77
REMARK   33  A    between atoms: _83  and  _85
REMARK   34  A    between atoms: _85  and  _86
REMARK   35  A    between atoms: _88  and  _90
REMARK   36  A    between atoms: _90  and  _91
REMARK   37  A    between atoms: _90  and  _93
REMARK   38  A    between atoms: _93  and  _94
REMARK   39  A    between atoms: _99  and  _101
REMARK   40  A    between atoms: _101  and  _102
REMARK   41  A    between atoms: _101  and  _104
REMARK   42  A    between atoms: _104  and  _105
REMARK   43  A    between atoms: _110  and  _112
REMARK   44  A    between atoms: _112  and  _113
REMARK   45  A    between atoms: _115  and  _117
REMARK   46  A    between atoms: _117  and  _118
REMARK   47  A    between atoms: _117  and  _120
REMARK   48  A    between atoms: _120  and  _121
REMARK   49  A    between atoms: _127  and  _129
REMARK   50  A    between atoms: _129  and  _130
REMARK   51  A    between atoms: _132  and  _134
REMARK   52  A    between atoms: _134  and  _135
REMARK   53  A    between atoms: _134  and  _137
REMARK   54  A    between atoms: _137  and  _138
REMARK   55  A    between atoms: _138  and  _139
REMARK   56  A    between atoms: _141  and  _143
REMARK   57  A    between atoms: _143  and  _144
REMARK   58  A    between atoms: _143  and  _146
REMARK   59  A    between atoms: _146  and  _147
REMARK   60  A    between atoms: _153  and  _155
REMARK   61  A    between atoms: _155  and  _156
REMARK   62  A    between atoms: _155  and  _158
REMARK   63  A    between atoms: _158  and  _159
REMARK   64  A    between atoms: _162  and  _164
REMARK   65  A    between atoms: _164  and  _165
REMARK   66  A    between atoms: _164  and  _167
REMARK   67  A    between atoms: _167  and  _168
REMARK   68  A    between atoms: _171  and  _173
REMARK   69  A    between atoms: _173  and  _174
REMARK   70  A    between atoms: _173  and  _176
REMARK   71  A    between atoms: _176  and  _177
REMARK   72  A    between atoms: _182  and  _183
REMARK   73  A    between atoms: _185  and  _187
REMARK   74  A    between atoms: _187  and  _188
REMARK   75  A    between atoms: _187  and  _190
REMARK   76  A    between atoms: _190  and  _191
REMARK   77  A    between atoms: _193  and  _195
REMARK   78  A    between atoms: _195  and  _196
REMARK   79  A    between atoms: _199  and  _201
REMARK   80  A    between atoms: _201  and  _202
REMARK   81  A    between atoms: _201  and  _204
REMARK   82  A    between atoms: _204  and  _205
REMARK   83  A    between atoms: _208  and  _210
REMARK   84  A    between atoms: _210  and  _211
REMARK   85  A    between atoms: _210  and  _213
REMARK   86  A    between atoms: _213  and  _214
REMARK   87  A    between atoms: _217  and  _219
REMARK   88  A    between atoms: _219  and  _220
REMARK   89  A    between atoms: _219  and  _222
REMARK   90  A    between atoms: _226  and  _227
REMARK   91  A    between atoms: _232  and  _234
REMARK   92  A    between atoms: _234  and  _235
REMARK   93  A    between atoms: _234  and  _237
REMARK   94  A    between atoms: _237  and  _238
REMARK   95  A    between atoms: _238  and  _239
REMARK   96  A    between atoms: _242  and  _244
REMARK   97  A    between atoms: _244  and  _245
REMARK   98  A    between atoms: _244  and  _247
REMARK   99  A    between atoms: _247  and  _248
REMARK  100  A    between atoms: _251  and  _253
REMARK  101  A    between atoms: _253  and  _254
REMARK  102  A    between atoms: _257  and  _259
REMARK  103  A    between atoms: _259  and  _260
REMARK  104  A    between atoms: _259  and  _262
REMARK  105  A    between atoms: _262  and  _263
REMARK  106  A    between atoms: _265  and  _267
REMARK  107  A    between atoms: _267  and  _268
REMARK  108  A    between atoms: _270  and  _272
REMARK  109  A    between atoms: _272  and  _273
REMARK  110  A    between atoms: _275  and  _277
REMARK  111  A    between atoms: _277  and  _278
REMARK  112  A    between atoms: _282  and  _283
REMARK  113  A    between atoms: _288  and  _290
REMARK  114  A    between atoms: _290  and  _291
REMARK  115  A    between atoms: _290  and  _293
REMARK  116  A    between atoms: _293  and  _294
REMARK  117  A    between atoms: _297  and  _299
REMARK  118  A    between atoms: _299  and  _300
REMARK  119  A    between atoms: _299  and  _302
REMARK  120  A    between atoms: _302  and  _303
REMARK  121  A    between atoms: _305  and  _307
REMARK  122  A    between atoms: _307  and  _308
REMARK  123  A    between atoms: _307  and  _310
REMARK  124  A    between atoms: _310  and  _311
REMARK  125  A    between atoms: _311  and  _312
REMARK  126  A    between atoms: _312  and  _313
REMARK  127  A    between atoms: _322  and  _324
REMARK  128  A    between atoms: _324  and  _325
REMARK  129  A    between atoms: _324  and  _327
REMARK  130  A    between atoms: _327  and  _328
REMARK  131  A    between atoms: _328  and  _329
REMARK  132  A    between atoms: _334  and  _336
REMARK  133  A    between atoms: _336  and  _337
REMARK  134  A    between atoms: _339  and  _341
REMARK  135  A    between atoms: _341  and  _342
REMARK  136  A    between atoms: _341  and  _344
REMARK  137  A    between atoms: _344  and  _345
REMARK  138  A    between atoms: _350  and  _351
REMARK  139  A    between atoms: _353  and  _355
REMARK  140  A    between atoms: _355  and  _356
REMARK  141  A    between atoms: _358  and  _360
REMARK  142  A    between atoms: _360  and  _361
REMARK  143  A    between atoms: _360  and  _363
REMARK  144  A    between atoms: _363  and  _364
REMARK  145  A    between atoms: _367  and  _369
REMARK  146  A    between atoms: _369  and  _370
REMARK  147  A    between atoms: _369  and  _372
REMARK  148  A    between atoms: _372  and  _373
REMARK  149  A    between atoms: _376  and  _378
REMARK  150  A    between atoms: _378  and  _379
REMARK  151  A    between atoms: _378  and  _381
REMARK  152  A    between atoms: _381  and  _382
REMARK  153  A    between atoms: _382  and  _383
REMARK  154  A    between atoms: _386  and  _388
REMARK  155  A    between atoms: _388  and  _389
REMARK  156  A    between atoms: _388  and  _391
REMARK  157  A    between atoms: _391  and  _392
REMARK  158  A    between atoms: _395  and  _397
REMARK  159  A    between atoms: _397  and  _398
REMARK  160  A    between atoms: _397  and  _400
REMARK  161  A    between atoms: _400  and  _401
REMARK  162  A    between atoms: _404  and  _406
REMARK  163  A    between atoms: _406  and  _407
REMARK  164  A    between atoms: _406  and  _409
REMARK  165  A    between atoms: _409  and  _410
REMARK  166  A    between atoms: _412  and  _414
REMARK  167  A    between atoms: _414  and  _415
REMARK  168  A    between atoms: _418  and  _420
REMARK  169  A    between atoms: _420  and  _421
REMARK  170  A    between atoms: _420  and  _423
REMARK  171  A    between atoms: _423  and  _424
REMARK  172  A    between atoms: _427  and  _429
REMARK  173  A    between atoms: _429  and  _430
REMARK  174  A    between atoms: _429  and  _432
REMARK  175  A    between atoms: _432  and  _433
REMARK  176  A    between atoms: _436  and  _438
REMARK  177  A    between atoms: _438  and  _439
REMARK  178  A    between atoms: _438  and  _441
REMARK  179  A    between atoms: _441  and  _442
REMARK  180  A    between atoms: _445  and  _447
REMARK  181  A    between atoms: _447  and  _448
REMARK  182  A    between atoms: _447  and  _450
REMARK  183  A    between atoms: _450  and  _451
REMARK  184  A    between atoms: _454  and  _456
REMARK  185  A    between atoms: _456  and  _457
REMARK  186  A    between atoms: _459  and  _461
REMARK  187  A    between atoms: _461  and  _462
REMARK  188  A    between atoms: _465  and  _467
REMARK  189  A    between atoms: _467  and  _468
REMARK  190  A    between atoms: _467  and  _470
REMARK  191  A    between atoms: _473  and  _475
REMARK  192  A    between atoms: _475  and  _476
REMARK  193  A    between atoms: _478  and  _480
REMARK  194  A    between atoms: _480  and  _481
REMARK  195  A    between atoms: _480  and  _483
REMARK  196  A    between atoms: _486  and  _488
REMARK  197  A    between atoms: _488  and  _489
REMARK  198  A    between atoms: _488  and  _491
REMARK  199  A    between atoms: _491  and  _492
REMARK  200  A    between atoms: _495  and  _497
REMARK  201  A    between atoms: _497  and  _498
REMARK  202  A    between atoms: _497  and  _500
REMARK  203  A    between atoms: _500  and  _501
REMARK  204  A    between atoms: _501  and  _502
REMARK  205  A    between atoms: _504  and  _506
REMARK  206  A    between atoms: _506  and  _507
REMARK  207  A    between atoms: _506  and  _509
REMARK  208  A    between atoms: _509  and  _510
REMARK  209  A    between atoms: _515  and  _516
REMARK  210  A    between atoms: _518  and  _520
REMARK  211  A    between atoms: _520  and  _521
REMARK  212  A    between atoms: _520  and  _523
REMARK  213  A    between atoms: _523  and  _524
REMARK  214  A    between atoms: _527  and  _529
REMARK  215  A    between atoms: _529  and  _530
REMARK  216  A    between atoms: _529  and  _532
REMARK  217  A    between atoms: _532  and  _533
REMARK  218  A    between atoms: _538  and  _540
REMARK  219  A    between atoms: _540  and  _541
REMARK  220  A    between atoms: _540  and  _543
REMARK  221  A    between atoms: _543  and  _544
REMARK  222  A    between atoms: _546  and  _548
REMARK  223  A    between atoms: _548  and  _549
REMARK  224  A    between atoms: _551  and  _553
REMARK  225  A    between atoms: _553  and  _554
REMARK  226  A    between atoms: _553  and  _556
REMARK  227  A    between atoms: _556  and  _557
REMARK  228  A    between atoms: _560  and  _562
REMARK  229  A    between atoms: _562  and  _563
REMARK  230  A    between atoms: _562  and  _565
REMARK  231  A    between atoms: _565  and  _566
REMARK  232  A    between atoms: _569  and  _571
REMARK  233  A    between atoms: _571  and  _572
REMARK  234  A    between atoms: _571  and  _574
REMARK  235  A    between atoms: _574  and  _575
REMARK  236  A    between atoms: _581  and  _583
REMARK  237  A    between atoms: _583  and  _584
REMARK  238  A    between atoms: _583  and  _586
REMARK  239  A    between atoms: _586  and  _587
REMARK  240  A    between atoms: _590  and  _592
REMARK  241  A    between atoms: _592  and  _593
REMARK  242  A    between atoms: _592  and  _595
REMARK  243  A    between atoms: _598  and  _600
REMARK  244  A    between atoms: _600  and  _601
REMARK  245  A    between atoms: _600  and  _603
REMARK  246  A    between atoms: _603  and  _604
REMARK  247  A    between atoms: _607  and  _609
REMARK  248  A    between atoms: _609  and  _610
REMARK  249  A    between atoms: _609  and  _612
REMARK  250  A    between atoms: _612  and  _613
REMARK  251  A    between atoms: _613  and  _614
REMARK  252  A    between atoms: _614  and  _615
REMARK  253  A    between atoms: _624  and  _626
REMARK  254  A    between atoms: _626  and  _627
REMARK  255  A    between atoms: _626  and  _629
REMARK  256  A    between atoms: _629  and  _630
REMARK                            x       y       z     vdW  Elec       q    Type
REMARK                         _______ _______ _______ _____ _____    ______ ____
ROOT
ATOM      1  O   HOH     1     -29.786   5.521 -19.299  0.00  0.00    +0.000 OA
ENDROOT
TORSDOF 0
REMARK  Name = ../refined-set-2016/3ies/3ies_pocket.pdb
REMARK  256 active torsions:
REMARK  status: ('A' for Active; 'I' for Inactive)
REMARK    1  A    between atoms: _1  and  _3
REMARK    2  A    between atoms: _3  and  _4
REMARK    3  A    between atoms: _3  and  _6
REMARK    4  A    between atoms: _6  and  _7
REMARK    5  A    between atoms: _7  and  _8
REMARK    6  A    between atoms: _10  and  _12
REMARK    7  A    between atoms: _12  and  _13
REMARK    8  A    between atoms: _12  and  _15
REMARK    9  A    between atoms: _15  and  _16
REMARK   10  A    between atoms: _21  and  _23
REMARK   11  A    between atoms: _23  and  _24
REMARK   12  A    between atoms: _23  and  _26
REMARK   13  A    between atoms: _26  and  _27
REMARK   14  A    between atoms: _29  and  _31
REMARK   15  A    between atoms: _31  and  _32
REMARK   16  A    between atoms: _31  and  _34
REMARK   17  A    between atoms: _37  and  _39
REMARK   18  A    between atoms: _39  and  _40
REMARK   19  A    between atoms: _39  and  _42
REMARK   20  A    between atoms: _42  and  _43
REMARK   21  A    between atoms: _43  and  _44
REMARK   22  A    between atoms: _44  and  _45
REMARK   23  A    between atoms: _54  and  _56
REMARK   24  A    between atoms: _56  and  _57
REMARK   25  A    between atoms: _56  and  _59
REMARK   26  A    between atoms: _59  and  _60
REMARK   27  A    between atoms: _65  and  _67
REMARK   28  A    between atoms: _67  and  _68
REMARK   29  A    between atoms: _71  and  _73
REMARK   30  A    between atoms: _73  and  _74
REMARK   31  A    between atoms: _73  and  _76
REMARK   32  A    between atoms: _76  and  _77
REMARK   33  A    between atoms: _83  and  _85
REMARK   34  A    between atoms: _85  and  _86
REMARK   35  A    between atoms: _88  and  _90
REMARK   36  A    between atoms: _90  and  _91
REMARK   37  A    between atoms: _90  and  _93
REMARK   38  A    between atoms: _93  and  _94
REMARK   39  A    between atoms: _99  and  _101
REMARK   40  A    between atoms: _101  and  _102
REMARK   41  A    between atoms: _101  and  _104
REMARK   42  A    between atoms: _104  and  _105
REMARK   43  A    between atoms: _110  and  _112
REMARK   44  A    between atoms: _112  and  _113
REMARK   45  A    between atoms: _115  and  _117
REMARK   46  A    between atoms: _117  and  _118
REMARK   47  A    between atoms: _117  and  _120
REMARK   48  A    between atoms: _120  and  _121
REMARK   49  A    between atoms: _127  and  _129
REMARK   50  A    between atoms: _129  and  _130
REMARK   51  A    between atoms: _132  and  _134
REMARK   52  A    between atoms: _134  and  _135
REMARK   53  A    between atoms: _134  and  _137
REMARK   54  A    between atoms: _137  and  _138
REMARK   55  A    between atoms: _138  and  _139
REMARK   56  A    between atoms: _141  and  _143
REMARK   57  A    between atoms: _143  and  _144
REMARK   58  A    between atoms: _143  and  _146
REMARK   59  A    between atoms: _146  and  _147
REMARK   60  A    between atoms: _153  and  _155
REMARK   61  A    between atoms: _155  and  _156
REMARK   62  A    between atoms: _155  and  _158
REMARK   63  A    between atoms: _158  and  _159
REMARK   64  A    between atoms: _162  and  _164
REMARK   65  A    between atoms: _164  and  _165
REMARK   66  A    between atoms: _164  and  _167
REMARK   67  A    between atoms: _167  and  _168
REMARK   68  A    between atoms: _171  and  _173
REMARK   69  A    between atoms: _173  and  _174
REMARK   70  A    between atoms: _173  and  _176
REMARK   71  A    between atoms: _176  and  _177
REMARK   72  A    between atoms: _182  and  _183
REMARK   73  A    between atoms: _185  and  _187
REMARK   74  A    between atoms: _187  and  _188
REMARK   75  A    between atoms: _187  and  _190
REMARK   76  A    between atoms: _190  and  _191
REMARK   77  A    between atoms: _193  and  _195
REMARK   78  A    between atoms: _195  and  _196
REMARK   79  A    between atoms: _199  and  _201
REMARK   80  A    between atoms: _201  and  _202
REMARK   81  A    between atoms: _201  and  _204
REMARK   82  A    between atoms: _204  and  _205
REMARK   83  A    between atoms: _208  and  _210
REMARK   84  A    between atoms: _210  and  _211
REMARK   85  A    between atoms: _210  and  _213
REMARK   86  A    between atoms: _213  and  _214
REMARK   87  A    between atoms: _217  and  _219
REMARK   88  A    between atoms: _219  and  _220
REMARK   89  A    between atoms: _219  and  _222
REMARK   90  A    between atoms: _226  and  _227
REMARK   91  A    between atoms: _232  and  _234
REMARK   92  A    between atoms: _234  and  _235
REMARK   93  A    between atoms: _234  and  _237
REMARK   94  A    between atoms: _237  and  _238
REMARK   95  A    between atoms: _238  and  _239
REMARK   96  A    between atoms: _242  and  _244
REMARK   97  A    between atoms: _244  and  _245
REMARK   98  A    between atoms: _244  and  _247
REMARK   99  A    between atoms: _247  and  _248
REMARK  100  A    between atoms: _251  and  _253
REMARK  101  A    between atoms: _253  and  _254
REMARK  102  A    between atoms: _257  and  _259
REMARK  103  A    between atoms: _259  and  _260
REMARK  104  A    between atoms: _259  and  _262
REMARK  105  A    between atoms: _262  and  _263
REMARK  106  A    between atoms: _265  and  _267
REMARK  107  A    between atoms: _267  and  _268
REMARK  108  A    between atoms: _270  and  _272
REMARK  109  A    between atoms: _272  and  _273
REMARK  110  A    between atoms: _275  and  _277
REMARK  111  A    between atoms: _277  and  _278
REMARK  112  A    between atoms: _282  and  _283
REMARK  113  A    between atoms: _288  and  _290
REMARK  114  A    between atoms: _290  and  _291
REMARK  115  A    between atoms: _290  and  _293
REMARK  116  A    between atoms: _293  and  _294
REMARK  117  A    between atoms: _297  and  _299
REMARK  118  A    between atoms: _299  and  _300
REMARK  119  A    between atoms: _299  and  _302
REMARK  120  A    between atoms: _302  and  _303
REMARK  121  A    between atoms: _305  and  _307
REMARK  122  A    between atoms: _307  and  _308
REMARK  123  A    between atoms: _307  and  _310
REMARK  124  A    between atoms: _310  and  _311
REMARK  125  A    between atoms: _311  and  _312
REMARK  126  A    between atoms: _312  and  _313
REMARK  127  A    between atoms: _322  and  _324
REMARK  128  A    between atoms: _324  and  _325
REMARK  129  A    between atoms: _324  and  _327
REMARK  130  A    between atoms: _327  and  _328
REMARK  131  A    between atoms: _328  and  _329
REMARK  132  A    between atoms: _334  and  _336
REMARK  133  A    between atoms: _336  and  _337
REMARK  134  A    between atoms: _339  and  _341
REMARK  135  A    between atoms: _341  and  _342
REMARK  136  A    between atoms: _341  and  _344
REMARK  137  A    between atoms: _344  and  _345
REMARK  138  A    between atoms: _350  and  _351
REMARK  139  A    between atoms: _353  and  _355
REMARK  140  A    between atoms: _355  and  _356
REMARK  141  A    between atoms: _358  and  _360
REMARK  142  A    between atoms: _360  and  _361
REMARK  143  A    between atoms: _360  and  _363
REMARK  144  A    between atoms: _363  and  _364
REMARK  145  A    between atoms: _367  and  _369
REMARK  146  A    between atoms: _369  and  _370
REMARK  147  A    between atoms: _369  and  _372
REMARK  148  A    between atoms: _372  and  _373
REMARK  149  A    between atoms: _376  and  _378
REMARK  150  A    between atoms: _378  and  _379
REMARK  151  A    between atoms: _378  and  _381
REMARK  152  A    between atoms: _381  and  _382
REMARK  153  A    between atoms: _382  and  _383
REMARK  154  A    between atoms: _386  and  _388
REMARK  155  A    between atoms: _388  and  _389
REMARK  156  A    between atoms: _388  and  _391
REMARK  157  A    between atoms: _391  and  _392
REMARK  158  A    between atoms: _395  and  _397
REMARK  159  A    between atoms: _397  and  _398
REMARK  160  A    between atoms: _397  and  _400
REMARK  161  A    between atoms: _400  and  _401
REMARK  162  A    between atoms: _404  and  _406
REMARK  163  A    between atoms: _406  and  _407
REMARK  164  A    between atoms: _406  and  _409
REMARK  165  A    between atoms: _409  and  _410
REMARK  166  A    between atoms: _412  and  _414
REMARK  167  A    between atoms: _414  and  _415
REMARK  168  A    between atoms: _418  and  _420
REMARK  169  A    between atoms: _420  and  _421
REMARK  170  A    between atoms: _420  and  _423
REMARK  171  A    between atoms: _423  and  _424
REMARK  172  A    between atoms: _427  and  _429
REMARK  173  A    between atoms: _429  and  _430
REMARK  174  A    between atoms: _429  and  _432
REMARK  175  A    between atoms: _432  and  _433
REMARK  176  A    between atoms: _436  and  _438
REMARK  177  A    between atoms: _438  and  _439
REMARK  178  A    between atoms: _438  and  _441
REMARK  179  A    between atoms: _441  and  _442
REMARK  180  A    between atoms: _445  and  _447
REMARK  181  A    between atoms: _447  and  _448
REMARK  182  A    between atoms: _447  and  _450
REMARK  183  A    between atoms: _450  and  _451
REMARK  184  A    between atoms: _454  and  _456
REMARK  185  A    between atoms: _456  and  _457
REMARK  186  A    between atoms: _459  and  _461
REMARK  187  A    between atoms: _461  and  _462
REMARK  188  A    between atoms: _465  and  _467
REMARK  189  A    between atoms: _467  and  _468
REMARK  190  A    between atoms: _467  and  _470
REMARK  191  A    between atoms: _473  and  _475
REMARK  192  A    between atoms: _475  and  _476
REMARK  193  A    between atoms: _478  and  _480
REMARK  194  A    between atoms: _480  and  _481
REMARK  195  A    between atoms: _480  and  _483
REMARK  196  A    between atoms: _486  and  _488
REMARK  197  A    between atoms: _488  and  _489
REMARK  198  A    between atoms: _488  and  _491
REMARK  199  A    between atoms: _491  and  _492
REMARK  200  A    between atoms: _495  and  _497
REMARK  201  A    between atoms: _497  and  _498
REMARK  202  A    between atoms: _497  and  _500
REMARK  203  A    between atoms: _500  and  _501
REMARK  204  A    between atoms: _501  and  _502
REMARK  205  A    between atoms: _504  and  _506
REMARK  206  A    between atoms: _506  and  _507
REMARK  207  A    between atoms: _506  and  _509
REMARK  208  A    between atoms: _509  and  _510
REMARK  209  A    between atoms: _515  and  _516
REMARK  210  A    between atoms: _518  and  _520
REMARK  211  A    between atoms: _520  and  _521
REMARK  212  A    between atoms: _520  and  _523
REMARK  213  A    between atoms: _523  and  _524
REMARK  214  A    between atoms: _527  and  _529
REMARK  215  A    between atoms: _529  and  _530
REMARK  216  A    between atoms: _529  and  _532
REMARK  217  A    between atoms: _532  and  _533
REMARK  218  A    between atoms: _538  and  _540
REMARK  219  A    between atoms: _540  and  _541
REMARK  220  A    between atoms: _540  and  _543
REMARK  221  A    between atoms: _543  and  _544
REMARK  222  A    between atoms: _546  and  _548
REMARK  223  A    between atoms: _548  and  _549
REMARK  224  A    between atoms: _551  and  _553
REMARK  225  A    between atoms: _553  and  _554
REMARK  226  A    between atoms: _553  and  _556
REMARK  227  A    between atoms: _556  and  _557
REMARK  228  A    between atoms: _560  and  _562
REMARK  229  A    between atoms: _562  and  _563
REMARK  230  A    between atoms: _562  and  _565
REMARK  231  A    between atoms: _565  and  _566
REMARK  232  A    between atoms: _569  and  _571
REMARK  233  A    between atoms: _571  and  _572
REMARK  234  A    between atoms: _571  and  _574
REMARK  235  A    between atoms: _574  and  _575
REMARK  236  A    between atoms: _581  and  _583
REMARK  237  A    between atoms: _583  and  _584
REMARK  238  A    between atoms: _583  and  _586
REMARK  239  A    between atoms: _586  and  _587
REMARK  240  A    between atoms: _590  and  _592
REMARK  241  A    between atoms: _592  and  _593
REMARK  242  A    between atoms: _592  and  _595
REMARK  243  A    between atoms: _598  and  _600
REMARK  244  A    between atoms: _600  and  _601
REMARK  245  A    between atoms: _600  and  _603
REMARK  246  A    between atoms: _603  and  _604
REMARK  247  A    between atoms: _607  and  _609
REMARK  248  A    between atoms: _609  and  _610
REMARK  249  A    between atoms: _609  and  _612
REMARK  250  A    between atoms: _612  and  _613
REMARK  251  A    between atoms: _613  and  _614
REMARK  252  A    between atoms: _614  and  _615
REMARK  253  A    between atoms: _624  and  _626
REMARK  254  A    between atoms: _626  and  _627
REMARK  255  A    between atoms: _626  and  _629
REMARK  256  A    between atoms: _629  and  _630
REMARK                            x       y       z     vdW  Elec       q    Type
REMARK                         _______ _______ _______ _____ _____    ______ ____
ROOT
ATOM      1  O   HOH     1     -22.925   7.240  -5.509  0.00  0.00    +0.000 OA
ENDROOT
TORSDOF 0
REMARK  Name = ../refined-set-2016/3ies/3ies_pocket.pdb
REMARK  256 active torsions:
REMARK  status: ('A' for Active; 'I' for Inactive)
REMARK    1  A    between atoms: _1  and  _3
REMARK    2  A    between atoms: _3  and  _4
REMARK    3  A    between atoms: _3  and  _6
REMARK    4  A    between atoms: _6  and  _7
REMARK    5  A    between atoms: _7  and  _8
REMARK    6  A    between atoms: _10  and  _12
REMARK    7  A    between atoms: _12  and  _13
REMARK    8  A    between atoms: _12  and  _15
REMARK    9  A    between atoms: _15  and  _16
REMARK   10  A    between atoms: _21  and  _23
REMARK   11  A    between atoms: _23  and  _24
REMARK   12  A    between atoms: _23  and  _26
REMARK   13  A    between atoms: _26  and  _27
REMARK   14  A    between atoms: _29  and  _31
REMARK   15  A    between atoms: _31  and  _32
REMARK   16  A    between atoms: _31  and  _34
REMARK   17  A    between atoms: _37  and  _39
REMARK   18  A    between atoms: _39  and  _40
REMARK   19  A    between atoms: _39  and  _42
REMARK   20  A    between atoms: _42  and  _43
REMARK   21  A    between atoms: _43  and  _44
REMARK   22  A    between atoms: _44  and  _45
REMARK   23  A    between atoms: _54  and  _56
REMARK   24  A    between atoms: _56  and  _57
REMARK   25  A    between atoms: _56  and  _59
REMARK   26  A    between atoms: _59  and  _60
REMARK   27  A    between atoms: _65  and  _67
REMARK   28  A    between atoms: _67  and  _68
REMARK   29  A    between atoms: _71  and  _73
REMARK   30  A    between atoms: _73  and  _74
REMARK   31  A    between atoms: _73  and  _76
REMARK   32  A    between atoms: _76  and  _77
REMARK   33  A    between atoms: _83  and  _85
REMARK   34  A    between atoms: _85  and  _86
REMARK   35  A    between atoms: _88  and  _90
REMARK   36  A    between atoms: _90  and  _91
REMARK   37  A    between atoms: _90  and  _93
REMARK   38  A    between atoms: _93  and  _94
REMARK   39  A    between atoms: _99  and  _101
REMARK   40  A    between atoms: _101  and  _102
REMARK   41  A    between atoms: _101  and  _104
REMARK   42  A    between atoms: _104  and  _105
REMARK   43  A    between atoms: _110  and  _112
REMARK   44  A    between atoms: _112  and  _113
REMARK   45  A    between atoms: _115  and  _117
REMARK   46  A    between atoms: _117  and  _118
REMARK   47  A    between atoms: _117  and  _120
REMARK   48  A    between atoms: _120  and  _121
REMARK   49  A    between atoms: _127  and  _129
REMARK   50  A    between atoms: _129  and  _130
REMARK   51  A    between atoms: _132  and  _134
REMARK   52  A    between atoms: _134  and  _135
REMARK   53  A    between atoms: _134  and  _137
REMARK   54  A    between atoms: _137  and  _138
REMARK   55  A    between atoms: _138  and  _139
REMARK   56  A    between atoms: _141  and  _143
REMARK   57  A    between atoms: _143  and  _144
REMARK   58  A    between atoms: _143  and  _146
REMARK   59  A    between atoms: _146  and  _147
REMARK   60  A    between atoms: _153  and  _155
REMARK   61  A    between atoms: _155  and  _156
REMARK   62  A    between atoms: _155  and  _158
REMARK   63  A    between atoms: _158  and  _159
REMARK   64  A    between atoms: _162  and  _164
REMARK   65  A    between atoms: _164  and  _165
REMARK   66  A    between atoms: _164  and  _167
REMARK   67  A    between atoms: _167  and  _168
REMARK   68  A    between atoms: _171  and  _173
REMARK   69  A    between atoms: _173  and  _174
REMARK   70  A    between atoms: _173  and  _176
REMARK   71  A    between atoms: _176  and  _177
REMARK   72  A    between atoms: _182  and  _183
REMARK   73  A    between atoms: _185  and  _187
REMARK   74  A    between atoms: _187  and  _188
REMARK   75  A    between atoms: _187  and  _190
REMARK   76  A    between atoms: _190  and  _191
REMARK   77  A    between atoms: _193  and  _195
REMARK   78  A    between atoms: _195  and  _196
REMARK   79  A    between atoms: _199  and  _201
REMARK   80  A    between atoms: _201  and  _202
REMARK   81  A    between atoms: _201  and  _204
REMARK   82  A    between atoms: _204  and  _205
REMARK   83  A    between atoms: _208  and  _210
REMARK   84  A    between atoms: _210  and  _211
REMARK   85  A    between atoms: _210  and  _213
REMARK   86  A    between atoms: _213  and  _214
REMARK   87  A    between atoms: _217  and  _219
REMARK   88  A    between atoms: _219  and  _220
REMARK   89  A    between atoms: _219  and  _222
REMARK   90  A    between atoms: _226  and  _227
REMARK   91  A    between atoms: _232  and  _234
REMARK   92  A    between atoms: _234  and  _235
REMARK   93  A    between atoms: _234  and  _237
REMARK   94  A    between atoms: _237  and  _238
REMARK   95  A    between atoms: _238  and  _239
REMARK   96  A    between atoms: _242  and  _244
REMARK   97  A    between atoms: _244  and  _245
REMARK   98  A    between atoms: _244  and  _247
REMARK   99  A    between atoms: _247  and  _248
REMARK  100  A    between atoms: _251  and  _253
REMARK  101  A    between atoms: _253  and  _254
REMARK  102  A    between atoms: _257  and  _259
REMARK  103  A    between atoms: _259  and  _260
REMARK  104  A    between atoms: _259  and  _262
REMARK  105  A    between atoms: _262  and  _263
REMARK  106  A    between atoms: _265  and  _267
REMARK  107  A    between atoms: _267  and  _268
REMARK  108  A    between atoms: _270  and  _272
REMARK  109  A    between atoms: _272  and  _273
REMARK  110  A    between atoms: _275  and  _277
REMARK  111  A    between atoms: _277  and  _278
REMARK  112  A    between atoms: _282  and  _283
REMARK  113  A    between atoms: _288  and  _290
REMARK  114  A    between atoms: _290  and  _291
REMARK  115  A    between atoms: _290  and  _293
REMARK  116  A    between atoms: _293  and  _294
REMARK  117  A    between atoms: _297  and  _299
REMARK  118  A    between atoms: _299  and  _300
REMARK  119  A    between atoms: _299  and  _302
REMARK  120  A    between atoms: _302  and  _303
REMARK  121  A    between atoms: _305  and  _307
REMARK  122  A    between atoms: _307  and  _308
REMARK  123  A    between atoms: _307  and  _310
REMARK  124  A    between atoms: _310  and  _311
REMARK  125  A    between atoms: _311  and  _312
REMARK  126  A    between atoms: _312  and  _313
REMARK  127  A    between atoms: _322  and  _324
REMARK  128  A    between atoms: _324  and  _325
REMARK  129  A    between atoms: _324  and  _327
REMARK  130  A    between atoms: _327  and  _328
REMARK  131  A    between atoms: _328  and  _329
REMARK  132  A    between atoms: _334  and  _336
REMARK  133  A    between atoms: _336  and  _337
REMARK  134  A    between atoms: _339  and  _341
REMARK  135  A    between atoms: _341  and  _342
REMARK  136  A    between atoms: _341  and  _344
REMARK  137  A    between atoms: _344  and  _345
REMARK  138  A    between atoms: _350  and  _351
REMARK  139  A    between atoms: _353  and  _355
REMARK  140  A    between atoms: _355  and  _356
REMARK  141  A    between atoms: _358  and  _360
REMARK  142  A    between atoms: _360  and  _361
REMARK  143  A    between atoms: _360  and  _363
REMARK  144  A    between atoms: _363  and  _364
REMARK  145  A    between atoms: _367  and  _369
REMARK  146  A    between atoms: _369  and  _370
REMARK  147  A    between atoms: _369  and  _372
REMARK  148  A    between atoms: _372  and  _373
REMARK  149  A    between atoms: _376  and  _378
REMARK  150  A    between atoms: _378  and  _379
REMARK  151  A    between atoms: _378  and  _381
REMARK  152  A    between atoms: _381  and  _382
REMARK  153  A    between atoms: _382  and  _383
REMARK  154  A    between atoms: _386  and  _388
REMARK  155  A    between atoms: _388  and  _389
REMARK  156  A    between atoms: _388  and  _391
REMARK  157  A    between atoms: _391  and  _392
REMARK  158  A    between atoms: _395  and  _397
REMARK  159  A    between atoms: _397  and  _398
REMARK  160  A    between atoms: _397  and  _400
REMARK  161  A    between atoms: _400  and  _401
REMARK  162  A    between atoms: _404  and  _406
REMARK  163  A    between atoms: _406  and  _407
REMARK  164  A    between atoms: _406  and  _409
REMARK  165  A    between atoms: _409  and  _410
REMARK  166  A    between atoms: _412  and  _414
REMARK  167  A    between atoms: _414  and  _415
REMARK  168  A    between atoms: _418  and  _420
REMARK  169  A    between atoms: _420  and  _421
REMARK  170  A    between atoms: _420  and  _423
REMARK  171  A    between atoms: _423  and  _424
REMARK  172  A    between atoms: _427  and  _429
REMARK  173  A    between atoms: _429  and  _430
REMARK  174  A    between atoms: _429  and  _432
REMARK  175  A    between atoms: _432  and  _433
REMARK  176  A    between atoms: _436  and  _438
REMARK  177  A    between atoms: _438  and  _439
REMARK  178  A    between atoms: _438  and  _441
REMARK  179  A    between atoms: _441  and  _442
REMARK  180  A    between atoms: _445  and  _447
REMARK  181  A    between atoms: _447  and  _448
REMARK  182  A    between atoms: _447  and  _450
REMARK  183  A    between atoms: _450  and  _451
REMARK  184  A    between atoms: _454  and  _456
REMARK  185  A    between atoms: _456  and  _457
REMARK  186  A    between atoms: _459  and  _461
REMARK  187  A    between atoms: _461  and  _462
REMARK  188  A    between atoms: _465  and  _467
REMARK  189  A    between atoms: _467  and  _468
REMARK  190  A    between atoms: _467  and  _470
REMARK  191  A    between atoms: _473  and  _475
REMARK  192  A    between atoms: _475  and  _476
REMARK  193  A    between atoms: _478  and  _480
REMARK  194  A    between atoms: _480  and  _481
REMARK  195  A    between atoms: _480  and  _483
REMARK  196  A    between atoms: _486  and  _488
REMARK  197  A    between atoms: _488  and  _489
REMARK  198  A    between atoms: _488  and  _491
REMARK  199  A    between atoms: _491  and  _492
REMARK  200  A    between atoms: _495  and  _497
REMARK  201  A    between atoms: _497  and  _498
REMARK  202  A    between atoms: _497  and  _500
REMARK  203  A    between atoms: _500  and  _501
REMARK  204  A    between atoms: _501  and  _502
REMARK  205  A    between atoms: _504  and  _506
REMARK  206  A    between atoms: _506  and  _507
REMARK  207  A    between atoms: _506  and  _509
REMARK  208  A    between atoms: _509  and  _510
REMARK  209  A    between atoms: _515  and  _516
REMARK  210  A    between atoms: _518  and  _520
REMARK  211  A    between atoms: _520  and  _521
REMARK  212  A    between atoms: _520  and  _523
REMARK  213  A    between atoms: _523  and  _524
REMARK  214  A    between atoms: _527  and  _529
REMARK  215  A    between atoms: _529  and  _530
REMARK  216  A    between atoms: _529  and  _532
REMARK  217  A    between atoms: _532  and  _533
REMARK  218  A    between atoms: _538  and  _540
REMARK  219  A    between atoms: _540  and  _541
REMARK  220  A    between atoms: _540  and  _543
REMARK  221  A    between atoms: _543  and  _544
REMARK  222  A    between atoms: _546  and  _548
REMARK  223  A    between atoms: _548  and  _549
REMARK  224  A    between atoms: _551  and  _553
REMARK  225  A    between atoms: _553  and  _554
REMARK  226  A    between atoms: _553  and  _556
REMARK  227  A    between atoms: _556  and  _557
REMARK  228  A    between atoms: _560  and  _562
REMARK  229  A    between atoms: _562  and  _563
REMARK  230  A    between atoms: _562  and  _565
REMARK  231  A    between atoms: _565  and  _566
REMARK  232  A    between atoms: _569  and  _571
REMARK  233  A    between atoms: _571  and  _572
REMARK  234  A    between atoms: _571  and  _574
REMARK  235  A    between atoms: _574  and  _575
REMARK  236  A    between atoms: _581  and  _583
REMARK  237  A    between atoms: _583  and  _584
REMARK  238  A    between atoms: _583  and  _586
REMARK  239  A    between atoms: _586  and  _587
REMARK  240  A    between atoms: _590  and  _592
REMARK  241  A    between atoms: _592  and  _593
REMARK  242  A    between atoms: _592  and  _595
REMARK  243  A    between atoms: _598  and  _600
REMARK  244  A    between atoms: _600  and  _601
REMARK  245  A    between atoms: _600  and  _603
REMARK  246  A    between atoms: _603  and  _604
REMARK  247  A    between atoms: _607  and  _609
REMARK  248  A    between atoms: _609  and  _610
REMARK  249  A    between atoms: _609  and  _612
REMARK  250  A    between atoms: _612  and  _613
REMARK  251  A    between atoms: _613  and  _614
REMARK  252  A    between atoms: _614  and  _615
REMARK  253  A    between atoms: _624  and  _626
REMARK  254  A    between atoms: _626  and  _627
REMARK  255  A    between atoms: _626  and  _629
REMARK  256  A    between atoms: _629  and  _630
REMARK                            x       y       z     vdW  Elec       q    Type
REMARK                         _______ _______ _______ _____ _____    ______ ____
ROOT
ATOM      1  O   HOH     1     -26.162  -6.503  -4.620  0.00  0.00    +0.000 OA
ENDROOT
TORSDOF 0
REMARK  Name = ../refined-set-2016/3ies/3ies_pocket.pdb
REMARK  256 active torsions:
REMARK  status: ('A' for Active; 'I' for Inactive)
REMARK    1  A    between atoms: _1  and  _3
REMARK    2  A    between atoms: _3  and  _4
REMARK    3  A    between atoms: _3  and  _6
REMARK    4  A    between atoms: _6  and  _7
REMARK    5  A    between atoms: _7  and  _8
REMARK    6  A    between atoms: _10  and  _12
REMARK    7  A    between atoms: _12  and  _13
REMARK    8  A    between atoms: _12  and  _15
REMARK    9  A    between atoms: _15  and  _16
REMARK   10  A    between atoms: _21  and  _23
REMARK   11  A    between atoms: _23  and  _24
REMARK   12  A    between atoms: _23  and  _26
REMARK   13  A    between atoms: _26  and  _27
REMARK   14  A    between atoms: _29  and  _31
REMARK   15  A    between atoms: _31  and  _32
REMARK   16  A    between atoms: _31  and  _34
REMARK   17  A    between atoms: _37  and  _39
REMARK   18  A    between atoms: _39  and  _40
REMARK   19  A    between atoms: _39  and  _42
REMARK   20  A    between atoms: _42  and  _43
REMARK   21  A    between atoms: _43  and  _44
REMARK   22  A    between atoms: _44  and  _45
REMARK   23  A    between atoms: _54  and  _56
REMARK   24  A    between atoms: _56  and  _57
REMARK   25  A    between atoms: _56  and  _59
REMARK   26  A    between atoms: _59  and  _60
REMARK   27  A    between atoms: _65  and  _67
REMARK   28  A    between atoms: _67  and  _68
REMARK   29  A    between atoms: _71  and  _73
REMARK   30  A    between atoms: _73  and  _74
REMARK   31  A    between atoms: _73  and  _76
REMARK   32  A    between atoms: _76  and  _77
REMARK   33  A    between atoms: _83  and  _85
REMARK   34  A    between atoms: _85  and  _86
REMARK   35  A    between atoms: _88  and  _90
REMARK   36  A    between atoms: _90  and  _91
REMARK   37  A    between atoms: _90  and  _93
REMARK   38  A    between atoms: _93  and  _94
REMARK   39  A    between atoms: _99  and  _101
REMARK   40  A    between atoms: _101  and  _102
REMARK   41  A    between atoms: _101  and  _104
REMARK   42  A    between atoms: _104  and  _105
REMARK   43  A    between atoms: _110  and  _112
REMARK   44  A    between atoms: _112  and  _113
REMARK   45  A    between atoms: _115  and  _117
REMARK   46  A    between atoms: _117  and  _118
REMARK   47  A    between atoms: _117  and  _120
REMARK   48  A    between atoms: _120  and  _121
REMARK   49  A    between atoms: _127  and  _129
REMARK   50  A    between atoms: _129  and  _130
REMARK   51  A    between atoms: _132  and  _134
REMARK   52  A    between atoms: _134  and  _135
REMARK   53  A    between atoms: _134  and  _137
REMARK   54  A    between atoms: _137  and  _138
REMARK   55  A    between atoms: _138  and  _139
REMARK   56  A    between atoms: _141  and  _143
REMARK   57  A    between atoms: _143  and  _144
REMARK   58  A    between atoms: _143  and  _146
REMARK   59  A    between atoms: _146  and  _147
REMARK   60  A    between atoms: _153  and  _155
REMARK   61  A    between atoms: _155  and  _156
REMARK   62  A    between atoms: _155  and  _158
REMARK   63  A    between atoms: _158  and  _159
REMARK   64  A    between atoms: _162  and  _164
REMARK   65  A    between atoms: _164  and  _165
REMARK   66  A    between atoms: _164  and  _167
REMARK   67  A    between atoms: _167  and  _168
REMARK   68  A    between atoms: _171  and  _173
REMARK   69  A    between atoms: _173  and  _174
REMARK   70  A    between atoms: _173  and  _176
REMARK   71  A    between atoms: _176  and  _177
REMARK   72  A    between atoms: _182  and  _183
REMARK   73  A    between atoms: _185  and  _187
REMARK   74  A    between atoms: _187  and  _188
REMARK   75  A    between atoms: _187  and  _190
REMARK   76  A    between atoms: _190  and  _191
REMARK   77  A    between atoms: _193  and  _195
REMARK   78  A    between atoms: _195  and  _196
REMARK   79  A    between atoms: _199  and  _201
REMARK   80  A    between atoms: _201  and  _202
REMARK   81  A    between atoms: _201  and  _204
REMARK   82  A    between atoms: _204  and  _205
REMARK   83  A    between atoms: _208  and  _210
REMARK   84  A    between atoms: _210  and  _211
REMARK   85  A    between atoms: _210  and  _213
REMARK   86  A    between atoms: _213  and  _214
REMARK   87  A    between atoms: _217  and  _219
REMARK   88  A    between atoms: _219  and  _220
REMARK   89  A    between atoms: _219  and  _222
REMARK   90  A    between atoms: _226  and  _227
REMARK   91  A    between atoms: _232  and  _234
REMARK   92  A    between atoms: _234  and  _235
REMARK   93  A    between atoms: _234  and  _237
REMARK   94  A    between atoms: _237  and  _238
REMARK   95  A    between atoms: _238  and  _239
REMARK   96  A    between atoms: _242  and  _244
REMARK   97  A    between atoms: _244  and  _245
REMARK   98  A    between atoms: _244  and  _247
REMARK   99  A    between atoms: _247  and  _248
REMARK  100  A    between atoms: _251  and  _253
REMARK  101  A    between atoms: _253  and  _254
REMARK  102  A    between atoms: _257  and  _259
REMARK  103  A    between atoms: _259  and  _260
REMARK  104  A    between atoms: _259  and  _262
REMARK  105  A    between atoms: _262  and  _263
REMARK  106  A    between atoms: _265  and  _267
REMARK  107  A    between atoms: _267  and  _268
REMARK  108  A    between atoms: _270  and  _272
REMARK  109  A    between atoms: _272  and  _273
REMARK  110  A    between atoms: _275  and  _277
REMARK  111  A    between atoms: _277  and  _278
REMARK  112  A    between atoms: _282  and  _283
REMARK  113  A    between atoms: _288  and  _290
REMARK  114  A    between atoms: _290  and  _291
REMARK  115  A    between atoms: _290  and  _293
REMARK  116  A    between atoms: _293  and  _294
REMARK  117  A    between atoms: _297  and  _299
REMARK  118  A    between atoms: _299  and  _300
REMARK  119  A    between atoms: _299  and  _302
REMARK  120  A    between atoms: _302  and  _303
REMARK  121  A    between atoms: _305  and  _307
REMARK  122  A    between atoms: _307  and  _308
REMARK  123  A    between atoms: _307  and  _310
REMARK  124  A    between atoms: _310  and  _311
REMARK  125  A    between atoms: _311  and  _312
REMARK  126  A    between atoms: _312  and  _313
REMARK  127  A    between atoms: _322  and  _324
REMARK  128  A    between atoms: _324  and  _325
REMARK  129  A    between atoms: _324  and  _327
REMARK  130  A    between atoms: _327  and  _328
REMARK  131  A    between atoms: _328  and  _329
REMARK  132  A    between atoms: _334  and  _336
REMARK  133  A    between atoms: _336  and  _337
REMARK  134  A    between atoms: _339  and  _341
REMARK  135  A    between atoms: _341  and  _342
REMARK  136  A    between atoms: _341  and  _344
REMARK  137  A    between atoms: _344  and  _345
REMARK  138  A    between atoms: _350  and  _351
REMARK  139  A    between atoms: _353  and  _355
REMARK  140  A    between atoms: _355  and  _356
REMARK  141  A    between atoms: _358  and  _360
REMARK  142  A    between atoms: _360  and  _361
REMARK  143  A    between atoms: _360  and  _363
REMARK  144  A    between atoms: _363  and  _364
REMARK  145  A    between atoms: _367  and  _369
REMARK  146  A    between atoms: _369  and  _370
REMARK  147  A    between atoms: _369  and  _372
REMARK  148  A    between atoms: _372  and  _373
REMARK  149  A    between atoms: _376  and  _378
REMARK  150  A    between atoms: _378  and  _379
REMARK  151  A    between atoms: _378  and  _381
REMARK  152  A    between atoms: _381  and  _382
REMARK  153  A    between atoms: _382  and  _383
REMARK  154  A    between atoms: _386  and  _388
REMARK  155  A    between atoms: _388  and  _389
REMARK  156  A    between atoms: _388  and  _391
REMARK  157  A    between atoms: _391  and  _392
REMARK  158  A    between atoms: _395  and  _397
REMARK  159  A    between atoms: _397  and  _398
REMARK  160  A    between atoms: _397  and  _400
REMARK  161  A    between atoms: _400  and  _401
REMARK  162  A    between atoms: _404  and  _406
REMARK  163  A    between atoms: _406  and  _407
REMARK  164  A    between atoms: _406  and  _409
REMARK  165  A    between atoms: _409  and  _410
REMARK  166  A    between atoms: _412  and  _414
REMARK  167  A    between atoms: _414  and  _415
REMARK  168  A    between atoms: _418  and  _420
REMARK  169  A    between atoms: _420  and  _421
REMARK  170  A    between atoms: _420  and  _423
REMARK  171  A    between atoms: _423  and  _424
REMARK  172  A    between atoms: _427  and  _429
REMARK  173  A    between atoms: _429  and  _430
REMARK  174  A    between atoms: _429  and  _432
REMARK  175  A    between atoms: _432  and  _433
REMARK  176  A    between atoms: _436  and  _438
REMARK  177  A    between atoms: _438  and  _439
REMARK  178  A    between atoms: _438  and  _441
REMARK  179  A    between atoms: _441  and  _442
REMARK  180  A    between atoms: _445  and  _447
REMARK  181  A    between atoms: _447  and  _448
REMARK  182  A    between atoms: _447  and  _450
REMARK  183  A    between atoms: _450  and  _451
REMARK  184  A    between atoms: _454  and  _456
REMARK  185  A    between atoms: _456  and  _457
REMARK  186  A    between atoms: _459  and  _461
REMARK  187  A    between atoms: _461  and  _462
REMARK  188  A    between atoms: _465  and  _467
REMARK  189  A    between atoms: _467  and  _468
REMARK  190  A    between atoms: _467  and  _470
REMARK  191  A    between atoms: _473  and  _475
REMARK  192  A    between atoms: _475  and  _476
REMARK  193  A    between atoms: _478  and  _480
REMARK  194  A    between atoms: _480  and  _481
REMARK  195  A    between atoms: _480  and  _483
REMARK  196  A    between atoms: _486  and  _488
REMARK  197  A    between atoms: _488  and  _489
REMARK  198  A    between atoms: _488  and  _491
REMARK  199  A    between atoms: _491  and  _492
REMARK  200  A    between atoms: _495  and  _497
REMARK  201  A    between atoms: _497  and  _498
REMARK  202  A    between atoms: _497  and  _500
REMARK  203  A    between atoms: _500  and  _501
REMARK  204  A    between atoms: _501  and  _502
REMARK  205  A    between atoms: _504  and  _506
REMARK  206  A    between atoms: _506  and  _507
REMARK  207  A    between atoms: _506  and  _509
REMARK  208  A    between atoms: _509  and  _510
REMARK  209  A    between atoms: _515  and  _516
REMARK  210  A    between atoms: _518  and  _520
REMARK  211  A    between atoms: _520  and  _521
REMARK  212  A    between atoms: _520  and  _523
REMARK  213  A    between atoms: _523  and  _524
REMARK  214  A    between atoms: _527  and  _529
REMARK  215  A    between atoms: _529  and  _530
REMARK  216  A    between atoms: _529  and  _532
REMARK  217  A    between atoms: _532  and  _533
REMARK  218  A    between atoms: _538  and  _540
REMARK  219  A    between atoms: _540  and  _541
REMARK  220  A    between atoms: _540  and  _543
REMARK  221  A    between atoms: _543  and  _544
REMARK  222  A    between atoms: _546  and  _548
REMARK  223  A    between atoms: _548  and  _549
REMARK  224  A    between atoms: _551  and  _553
REMARK  225  A    between atoms: _553  and  _554
REMARK  226  A    between atoms: _553  and  _556
REMARK  227  A    between atoms: _556  and  _557
REMARK  228  A    between atoms: _560  and  _562
REMARK  229  A    between atoms: _562  and  _563
REMARK  230  A    between atoms: _562  and  _565
REMARK  231  A    between atoms: _565  and  _566
REMARK  232  A    between atoms: _569  and  _571
REMARK  233  A    between atoms: _571  and  _572
REMARK  234  A    between atoms: _571  and  _574
REMARK  235  A    between atoms: _574  and  _575
REMARK  236  A    between atoms: _581  and  _583
REMARK  237  A    between atoms: _583  and  _584
REMARK  238  A    between atoms: _583  and  _586
REMARK  239  A    between atoms: _586  and  _587
REMARK  240  A    between atoms: _590  and  _592
REMARK  241  A    between atoms: _592  and  _593
REMARK  242  A    between atoms: _592  and  _595
REMARK  243  A    between atoms: _598  and  _600
REMARK  244  A    between atoms: _600  and  _601
REMARK  245  A    between atoms: _600  and  _603
REMARK  246  A    between atoms: _603  and  _604
REMARK  247  A    between atoms: _607  and  _609
REMARK  248  A    between atoms: _609  and  _610
REMARK  249  A    between atoms: _609  and  _612
REMARK  250  A    between atoms: _612  and  _613
REMARK  251  A    between atoms: _613  and  _614
REMARK  252  A    between atoms: _614  and  _615
REMARK  253  A    between atoms: _624  and  _626
REMARK  254  A    between atoms: _626  and  _627
REMARK  255  A    between atoms: _626  and  _629
REMARK  256  A    between atoms: _629  and  _630
REMARK                            x       y       z     vdW  Elec       q    Type
REMARK                         _______ _______ _______ _____ _____    ______ ____
ROOT
ATOM      1  O   HOH     1     -26.756   4.727 -16.430  0.00  0.00    +0.000 OA
ENDROOT
TORSDOF 0
REMARK  Name = ../refined-set-2016/3ies/3ies_pocket.pdb
REMARK  256 active torsions:
REMARK  status: ('A' for Active; 'I' for Inactive)
REMARK    1  A    between atoms: _1  and  _3
REMARK    2  A    between atoms: _3  and  _4
REMARK    3  A    between atoms: _3  and  _6
REMARK    4  A    between atoms: _6  and  _7
REMARK    5  A    between atoms: _7  and  _8
REMARK    6  A    between atoms: _10  and  _12
REMARK    7  A    between atoms: _12  and  _13
REMARK    8  A    between atoms: _12  and  _15
REMARK    9  A    between atoms: _15  and  _16
REMARK   10  A    between atoms: _21  and  _23
REMARK   11  A    between atoms: _23  and  _24
REMARK   12  A    between atoms: _23  and  _26
REMARK   13  A    between atoms: _26  and  _27
REMARK   14  A    between atoms: _29  and  _31
REMARK   15  A    between atoms: _31  and  _32
REMARK   16  A    between atoms: _31  and  _34
REMARK   17  A    between atoms: _37  and  _39
REMARK   18  A    between atoms: _39  and  _40
REMARK   19  A    between atoms: _39  and  _42
REMARK   20  A    between atoms: _42  and  _43
REMARK   21  A    between atoms: _43  and  _44
REMARK   22  A    between atoms: _44  and  _45
REMARK   23  A    between atoms: _54  and  _56
REMARK   24  A    between atoms: _56  and  _57
REMARK   25  A    between atoms: _56  and  _59
REMARK   26  A    between atoms: _59  and  _60
REMARK   27  A    between atoms: _65  and  _67
REMARK   28  A    between atoms: _67  and  _68
REMARK   29  A    between atoms: _71  and  _73
REMARK   30  A    between atoms: _73  and  _74
REMARK   31  A    between atoms: _73  and  _76
REMARK   32  A    between atoms: _76  and  _77
REMARK   33  A    between atoms: _83  and  _85
REMARK   34  A    between atoms: _85  and  _86
REMARK   35  A    between atoms: _88  and  _90
REMARK   36  A    between atoms: _90  and  _91
REMARK   37  A    between atoms: _90  and  _93
REMARK   38  A    between atoms: _93  and  _94
REMARK   39  A    between atoms: _99  and  _101
REMARK   40  A    between atoms: _101  and  _102
REMARK   41  A    between atoms: _101  and  _104
REMARK   42  A    between atoms: _104  and  _105
REMARK   43  A    between atoms: _110  and  _112
REMARK   44  A    between atoms: _112  and  _113
REMARK   45  A    between atoms: _115  and  _117
REMARK   46  A    between atoms: _117  and  _118
REMARK   47  A    between atoms: _117  and  _120
REMARK   48  A    between atoms: _120  and  _121
REMARK   49  A    between atoms: _127  and  _129
REMARK   50  A    between atoms: _129  and  _130
REMARK   51  A    between atoms: _132  and  _134
REMARK   52  A    between atoms: _134  and  _135
REMARK   53  A    between atoms: _134  and  _137
REMARK   54  A    between atoms: _137  and  _138
REMARK   55  A    between atoms: _138  and  _139
REMARK   56  A    between atoms: _141  and  _143
REMARK   57  A    between atoms: _143  and  _144
REMARK   58  A    between atoms: _143  and  _146
REMARK   59  A    between atoms: _146  and  _147
REMARK   60  A    between atoms: _153  and  _155
REMARK   61  A    between atoms: _155  and  _156
REMARK   62  A    between atoms: _155  and  _158
REMARK   63  A    between atoms: _158  and  _159
REMARK   64  A    between atoms: _162  and  _164
REMARK   65  A    between atoms: _164  and  _165
REMARK   66  A    between atoms: _164  and  _167
REMARK   67  A    between atoms: _167  and  _168
REMARK   68  A    between atoms: _171  and  _173
REMARK   69  A    between atoms: _173  and  _174
REMARK   70  A    between atoms: _173  and  _176
REMARK   71  A    between atoms: _176  and  _177
REMARK   72  A    between atoms: _182  and  _183
REMARK   73  A    between atoms: _185  and  _187
REMARK   74  A    between atoms: _187  and  _188
REMARK   75  A    between atoms: _187  and  _190
REMARK   76  A    between atoms: _190  and  _191
REMARK   77  A    between atoms: _193  and  _195
REMARK   78  A    between atoms: _195  and  _196
REMARK   79  A    between atoms: _199  and  _201
REMARK   80  A    between atoms: _201  and  _202
REMARK   81  A    between atoms: _201  and  _204
REMARK   82  A    between atoms: _204  and  _205
REMARK   83  A    between atoms: _208  and  _210
REMARK   84  A    between atoms: _210  and  _211
REMARK   85  A    between atoms: _210  and  _213
REMARK   86  A    between atoms: _213  and  _214
REMARK   87  A    between atoms: _217  and  _219
REMARK   88  A    between atoms: _219  and  _220
REMARK   89  A    between atoms: _219  and  _222
REMARK   90  A    between atoms: _226  and  _227
REMARK   91  A    between atoms: _232  and  _234
REMARK   92  A    between atoms: _234  and  _235
REMARK   93  A    between atoms: _234  and  _237
REMARK   94  A    between atoms: _237  and  _238
REMARK   95  A    between atoms: _238  and  _239
REMARK   96  A    between atoms: _242  and  _244
REMARK   97  A    between atoms: _244  and  _245
REMARK   98  A    between atoms: _244  and  _247
REMARK   99  A    between atoms: _247  and  _248
REMARK  100  A    between atoms: _251  and  _253
REMARK  101  A    between atoms: _253  and  _254
REMARK  102  A    between atoms: _257  and  _259
REMARK  103  A    between atoms: _259  and  _260
REMARK  104  A    between atoms: _259  and  _262
REMARK  105  A    between atoms: _262  and  _263
REMARK  106  A    between atoms: _265  and  _267
REMARK  107  A    between atoms: _267  and  _268
REMARK  108  A    between atoms: _270  and  _272
REMARK  109  A    between atoms: _272  and  _273
REMARK  110  A    between atoms: _275  and  _277
REMARK  111  A    between atoms: _277  and  _278
REMARK  112  A    between atoms: _282  and  _283
REMARK  113  A    between atoms: _288  and  _290
REMARK  114  A    between atoms: _290  and  _291
REMARK  115  A    between atoms: _290  and  _293
REMARK  116  A    between atoms: _293  and  _294
REMARK  117  A    between atoms: _297  and  _299
REMARK  118  A    between atoms: _299  and  _300
REMARK  119  A    between atoms: _299  and  _302
REMARK  120  A    between atoms: _302  and  _303
REMARK  121  A    between atoms: _305  and  _307
REMARK  122  A    between atoms: _307  and  _308
REMARK  123  A    between atoms: _307  and  _310
REMARK  124  A    between atoms: _310  and  _311
REMARK  125  A    between atoms: _311  and  _312
REMARK  126  A    between atoms: _312  and  _313
REMARK  127  A    between atoms: _322  and  _324
REMARK  128  A    between atoms: _324  and  _325
REMARK  129  A    between atoms: _324  and  _327
REMARK  130  A    between atoms: _327  and  _328
REMARK  131  A    between atoms: _328  and  _329
REMARK  132  A    between atoms: _334  and  _336
REMARK  133  A    between atoms: _336  and  _337
REMARK  134  A    between atoms: _339  and  _341
REMARK  135  A    between atoms: _341  and  _342
REMARK  136  A    between atoms: _341  and  _344
REMARK  137  A    between atoms: _344  and  _345
REMARK  138  A    between atoms: _350  and  _351
REMARK  139  A    between atoms: _353  and  _355
REMARK  140  A    between atoms: _355  and  _356
REMARK  141  A    between atoms: _358  and  _360
REMARK  142  A    between atoms: _360  and  _361
REMARK  143  A    between atoms: _360  and  _363
REMARK  144  A    between atoms: _363  and  _364
REMARK  145  A    between atoms: _367  and  _369
REMARK  146  A    between atoms: _369  and  _370
REMARK  147  A    between atoms: _369  and  _372
REMARK  148  A    between atoms: _372  and  _373
REMARK  149  A    between atoms: _376  and  _378
REMARK  150  A    between atoms: _378  and  _379
REMARK  151  A    between atoms: _378  and  _381
REMARK  152  A    between atoms: _381  and  _382
REMARK  153  A    between atoms: _382  and  _383
REMARK  154  A    between atoms: _386  and  _388
REMARK  155  A    between atoms: _388  and  _389
REMARK  156  A    between atoms: _388  and  _391
REMARK  157  A    between atoms: _391  and  _392
REMARK  158  A    between atoms: _395  and  _397
REMARK  159  A    between atoms: _397  and  _398
REMARK  160  A    between atoms: _397  and  _400
REMARK  161  A    between atoms: _400  and  _401
REMARK  162  A    between atoms: _404  and  _406
REMARK  163  A    between atoms: _406  and  _407
REMARK  164  A    between atoms: _406  and  _409
REMARK  165  A    between atoms: _409  and  _410
REMARK  166  A    between atoms: _412  and  _414
REMARK  167  A    between atoms: _414  and  _415
REMARK  168  A    between atoms: _418  and  _420
REMARK  169  A    between atoms: _420  and  _421
REMARK  170  A    between atoms: _420  and  _423
REMARK  171  A    between atoms: _423  and  _424
REMARK  172  A    between atoms: _427  and  _429
REMARK  173  A    between atoms: _429  and  _430
REMARK  174  A    between atoms: _429  and  _432
REMARK  175  A    between atoms: _432  and  _433
REMARK  176  A    between atoms: _436  and  _438
REMARK  177  A    between atoms: _438  and  _439
REMARK  178  A    between atoms: _438  and  _441
REMARK  179  A    between atoms: _441  and  _442
REMARK  180  A    between atoms: _445  and  _447
REMARK  181  A    between atoms: _447  and  _448
REMARK  182  A    between atoms: _447  and  _450
REMARK  183  A    between atoms: _450  and  _451
REMARK  184  A    between atoms: _454  and  _456
REMARK  185  A    between atoms: _456  and  _457
REMARK  186  A    between atoms: _459  and  _461
REMARK  187  A    between atoms: _461  and  _462
REMARK  188  A    between atoms: _465  and  _467
REMARK  189  A    between atoms: _467  and  _468
REMARK  190  A    between atoms: _467  and  _470
REMARK  191  A    between atoms: _473  and  _475
REMARK  192  A    between atoms: _475  and  _476
REMARK  193  A    between atoms: _478  and  _480
REMARK  194  A    between atoms: _480  and  _481
REMARK  195  A    between atoms: _480  and  _483
REMARK  196  A    between atoms: _486  and  _488
REMARK  197  A    between atoms: _488  and  _489
REMARK  198  A    between atoms: _488  and  _491
REMARK  199  A    between atoms: _491  and  _492
REMARK  200  A    between atoms: _495  and  _497
REMARK  201  A    between atoms: _497  and  _498
REMARK  202  A    between atoms: _497  and  _500
REMARK  203  A    between atoms: _500  and  _501
REMARK  204  A    between atoms: _501  and  _502
REMARK  205  A    between atoms: _504  and  _506
REMARK  206  A    between atoms: _506  and  _507
REMARK  207  A    between atoms: _506  and  _509
REMARK  208  A    between atoms: _509  and  _510
REMARK  209  A    between atoms: _515  and  _516
REMARK  210  A    between atoms: _518  and  _520
REMARK  211  A    between atoms: _520  and  _521
REMARK  212  A    between atoms: _520  and  _523
REMARK  213  A    between atoms: _523  and  _524
REMARK  214  A    between atoms: _527  and  _529
REMARK  215  A    between atoms: _529  and  _530
REMARK  216  A    between atoms: _529  and  _532
REMARK  217  A    between atoms: _532  and  _533
REMARK  218  A    between atoms: _538  and  _540
REMARK  219  A    between atoms: _540  and  _541
REMARK  220  A    between atoms: _540  and  _543
REMARK  221  A    between atoms: _543  and  _544
REMARK  222  A    between atoms: _546  and  _548
REMARK  223  A    between atoms: _548  and  _549
REMARK  224  A    between atoms: _551  and  _553
REMARK  225  A    between atoms: _553  and  _554
REMARK  226  A    between atoms: _553  and  _556
REMARK  227  A    between atoms: _556  and  _557
REMARK  228  A    between atoms: _560  and  _562
REMARK  229  A    between atoms: _562  and  _563
REMARK  230  A    between atoms: _562  and  _565
REMARK  231  A    between atoms: _565  and  _566
REMARK  232  A    between atoms: _569  and  _571
REMARK  233  A    between atoms: _571  and  _572
REMARK  234  A    between atoms: _571  and  _574
REMARK  235  A    between atoms: _574  and  _575
REMARK  236  A    between atoms: _581  and  _583
REMARK  237  A    between atoms: _583  and  _584
REMARK  238  A    between atoms: _583  and  _586
REMARK  239  A    between atoms: _586  and  _587
REMARK  240  A    between atoms: _590  and  _592
REMARK  241  A    between atoms: _592  and  _593
REMARK  242  A    between atoms: _592  and  _595
REMARK  243  A    between atoms: _598  and  _600
REMARK  244  A    between atoms: _600  and  _601
REMARK  245  A    between atoms: _600  and  _603
REMARK  246  A    between atoms: _603  and  _604
REMARK  247  A    between atoms: _607  and  _609
REMARK  248  A    between atoms: _609  and  _610
REMARK  249  A    between atoms: _609  and  _612
REMARK  250  A    between atoms: _612  and  _613
REMARK  251  A    between atoms: _613  and  _614
REMARK  252  A    between atoms: _614  and  _615
REMARK  253  A    between atoms: _624  and  _626
REMARK  254  A    between atoms: _626  and  _627
REMARK  255  A    between atoms: _626  and  _629
REMARK  256  A    between atoms: _629  and  _630
REMARK                            x       y       z     vdW  Elec       q    Type
REMARK                         _______ _______ _______ _____ _____    ______ ____
ROOT
ATOM      1  O   HOH     1     -26.084  17.781  -3.546  0.00  0.00    +0.000 OA
ENDROOT
TORSDOF 0
REMARK  Name = ../refined-set-2016/3ies/3ies_pocket.pdb
REMARK  256 active torsions:
REMARK  status: ('A' for Active; 'I' for Inactive)
REMARK    1  A    between atoms: _1  and  _3
REMARK    2  A    between atoms: _3  and  _4
REMARK    3  A    between atoms: _3  and  _6
REMARK    4  A    between atoms: _6  and  _7
REMARK    5  A    between atoms: _7  and  _8
REMARK    6  A    between atoms: _10  and  _12
REMARK    7  A    between atoms: _12  and  _13
REMARK    8  A    between atoms: _12  and  _15
REMARK    9  A    between atoms: _15  and  _16
REMARK   10  A    between atoms: _21  and  _23
REMARK   11  A    between atoms: _23  and  _24
REMARK   12  A    between atoms: _23  and  _26
REMARK   13  A    between atoms: _26  and  _27
REMARK   14  A    between atoms: _29  and  _31
REMARK   15  A    between atoms: _31  and  _32
REMARK   16  A    between atoms: _31  and  _34
REMARK   17  A    between atoms: _37  and  _39
REMARK   18  A    between atoms: _39  and  _40
REMARK   19  A    between atoms: _39  and  _42
REMARK   20  A    between atoms: _42  and  _43
REMARK   21  A    between atoms: _43  and  _44
REMARK   22  A    between atoms: _44  and  _45
REMARK   23  A    between atoms: _54  and  _56
REMARK   24  A    between atoms: _56  and  _57
REMARK   25  A    between atoms: _56  and  _59
REMARK   26  A    between atoms: _59  and  _60
REMARK   27  A    between atoms: _65  and  _67
REMARK   28  A    between atoms: _67  and  _68
REMARK   29  A    between atoms: _71  and  _73
REMARK   30  A    between atoms: _73  and  _74
REMARK   31  A    between atoms: _73  and  _76
REMARK   32  A    between atoms: _76  and  _77
REMARK   33  A    between atoms: _83  and  _85
REMARK   34  A    between atoms: _85  and  _86
REMARK   35  A    between atoms: _88  and  _90
REMARK   36  A    between atoms: _90  and  _91
REMARK   37  A    between atoms: _90  and  _93
REMARK   38  A    between atoms: _93  and  _94
REMARK   39  A    between atoms: _99  and  _101
REMARK   40  A    between atoms: _101  and  _102
REMARK   41  A    between atoms: _101  and  _104
REMARK   42  A    between atoms: _104  and  _105
REMARK   43  A    between atoms: _110  and  _112
REMARK   44  A    between atoms: _112  and  _113
REMARK   45  A    between atoms: _115  and  _117
REMARK   46  A    between atoms: _117  and  _118
REMARK   47  A    between atoms: _117  and  _120
REMARK   48  A    between atoms: _120  and  _121
REMARK   49  A    between atoms: _127  and  _129
REMARK   50  A    between atoms: _129  and  _130
REMARK   51  A    between atoms: _132  and  _134
REMARK   52  A    between atoms: _134  and  _135
REMARK   53  A    between atoms: _134  and  _137
REMARK   54  A    between atoms: _137  and  _138
REMARK   55  A    between atoms: _138  and  _139
REMARK   56  A    between atoms: _141  and  _143
REMARK   57  A    between atoms: _143  and  _144
REMARK   58  A    between atoms: _143  and  _146
REMARK   59  A    between atoms: _146  and  _147
REMARK   60  A    between atoms: _153  and  _155
REMARK   61  A    between atoms: _155  and  _156
REMARK   62  A    between atoms: _155  and  _158
REMARK   63  A    between atoms: _158  and  _159
REMARK   64  A    between atoms: _162  and  _164
REMARK   65  A    between atoms: _164  and  _165
REMARK   66  A    between atoms: _164  and  _167
REMARK   67  A    between atoms: _167  and  _168
REMARK   68  A    between atoms: _171  and  _173
REMARK   69  A    between atoms: _173  and  _174
REMARK   70  A    between atoms: _173  and  _176
REMARK   71  A    between atoms: _176  and  _177
REMARK   72  A    between atoms: _182  and  _183
REMARK   73  A    between atoms: _185  and  _187
REMARK   74  A    between atoms: _187  and  _188
REMARK   75  A    between atoms: _187  and  _190
REMARK   76  A    between atoms: _190  and  _191
REMARK   77  A    between atoms: _193  and  _195
REMARK   78  A    between atoms: _195  and  _196
REMARK   79  A    between atoms: _199  and  _201
REMARK   80  A    between atoms: _201  and  _202
REMARK   81  A    between atoms: _201  and  _204
REMARK   82  A    between atoms: _204  and  _205
REMARK   83  A    between atoms: _208  and  _210
REMARK   84  A    between atoms: _210  and  _211
REMARK   85  A    between atoms: _210  and  _213
REMARK   86  A    between atoms: _213  and  _214
REMARK   87  A    between atoms: _217  and  _219
REMARK   88  A    between atoms: _219  and  _220
REMARK   89  A    between atoms: _219  and  _222
REMARK   90  A    between atoms: _226  and  _227
REMARK   91  A    between atoms: _232  and  _234
REMARK   92  A    between atoms: _234  and  _235
REMARK   93  A    between atoms: _234  and  _237
REMARK   94  A    between atoms: _237  and  _238
REMARK   95  A    between atoms: _238  and  _239
REMARK   96  A    between atoms: _242  and  _244
REMARK   97  A    between atoms: _244  and  _245
REMARK   98  A    between atoms: _244  and  _247
REMARK   99  A    between atoms: _247  and  _248
REMARK  100  A    between atoms: _251  and  _253
REMARK  101  A    between atoms: _253  and  _254
REMARK  102  A    between atoms: _257  and  _259
REMARK  103  A    between atoms: _259  and  _260
REMARK  104  A    between atoms: _259  and  _262
REMARK  105  A    between atoms: _262  and  _263
REMARK  106  A    between atoms: _265  and  _267
REMARK  107  A    between atoms: _267  and  _268
REMARK  108  A    between atoms: _270  and  _272
REMARK  109  A    between atoms: _272  and  _273
REMARK  110  A    between atoms: _275  and  _277
REMARK  111  A    between atoms: _277  and  _278
REMARK  112  A    between atoms: _282  and  _283
REMARK  113  A    between atoms: _288  and  _290
REMARK  114  A    between atoms: _290  and  _291
REMARK  115  A    between atoms: _290  and  _293
REMARK  116  A    between atoms: _293  and  _294
REMARK  117  A    between atoms: _297  and  _299
REMARK  118  A    between atoms: _299  and  _300
REMARK  119  A    between atoms: _299  and  _302
REMARK  120  A    between atoms: _302  and  _303
REMARK  121  A    between atoms: _305  and  _307
REMARK  122  A    between atoms: _307  and  _308
REMARK  123  A    between atoms: _307  and  _310
REMARK  124  A    between atoms: _310  and  _311
REMARK  125  A    between atoms: _311  and  _312
REMARK  126  A    between atoms: _312  and  _313
REMARK  127  A    between atoms: _322  and  _324
REMARK  128  A    between atoms: _324  and  _325
REMARK  129  A    between atoms: _324  and  _327
REMARK  130  A    between atoms: _327  and  _328
REMARK  131  A    between atoms: _328  and  _329
REMARK  132  A    between atoms: _334  and  _336
REMARK  133  A    between atoms: _336  and  _337
REMARK  134  A    between atoms: _339  and  _341
REMARK  135  A    between atoms: _341  and  _342
REMARK  136  A    between atoms: _341  and  _344
REMARK  137  A    between atoms: _344  and  _345
REMARK  138  A    between atoms: _350  and  _351
REMARK  139  A    between atoms: _353  and  _355
REMARK  140  A    between atoms: _355  and  _356
REMARK  141  A    between atoms: _358  and  _360
REMARK  142  A    between atoms: _360  and  _361
REMARK  143  A    between atoms: _360  and  _363
REMARK  144  A    between atoms: _363  and  _364
REMARK  145  A    between atoms: _367  and  _369
REMARK  146  A    between atoms: _369  and  _370
REMARK  147  A    between atoms: _369  and  _372
REMARK  148  A    between atoms: _372  and  _373
REMARK  149  A    between atoms: _376  and  _378
REMARK  150  A    between atoms: _378  and  _379
REMARK  151  A    between atoms: _378  and  _381
REMARK  152  A    between atoms: _381  and  _382
REMARK  153  A    between atoms: _382  and  _383
REMARK  154  A    between atoms: _386  and  _388
REMARK  155  A    between atoms: _388  and  _389
REMARK  156  A    between atoms: _388  and  _391
REMARK  157  A    between atoms: _391  and  _392
REMARK  158  A    between atoms: _395  and  _397
REMARK  159  A    between atoms: _397  and  _398
REMARK  160  A    between atoms: _397  and  _400
REMARK  161  A    between atoms: _400  and  _401
REMARK  162  A    between atoms: _404  and  _406
REMARK  163  A    between atoms: _406  and  _407
REMARK  164  A    between atoms: _406  and  _409
REMARK  165  A    between atoms: _409  and  _410
REMARK  166  A    between atoms: _412  and  _414
REMARK  167  A    between atoms: _414  and  _415
REMARK  168  A    between atoms: _418  and  _420
REMARK  169  A    between atoms: _420  and  _421
REMARK  170  A    between atoms: _420  and  _423
REMARK  171  A    between atoms: _423  and  _424
REMARK  172  A    between atoms: _427  and  _429
REMARK  173  A    between atoms: _429  and  _430
REMARK  174  A    between atoms: _429  and  _432
REMARK  175  A    between atoms: _432  and  _433
REMARK  176  A    between atoms: _436  and  _438
REMARK  177  A    between atoms: _438  and  _439
REMARK  178  A    between atoms: _438  and  _441
REMARK  179  A    between atoms: _441  and  _442
REMARK  180  A    between atoms: _445  and  _447
REMARK  181  A    between atoms: _447  and  _448
REMARK  182  A    between atoms: _447  and  _450
REMARK  183  A    between atoms: _450  and  _451
REMARK  184  A    between atoms: _454  and  _456
REMARK  185  A    between atoms: _456  and  _457
REMARK  186  A    between atoms: _459  and  _461
REMARK  187  A    between atoms: _461  and  _462
REMARK  188  A    between atoms: _465  and  _467
REMARK  189  A    between atoms: _467  and  _468
REMARK  190  A    between atoms: _467  and  _470
REMARK  191  A    between atoms: _473  and  _475
REMARK  192  A    between atoms: _475  and  _476
REMARK  193  A    between atoms: _478  and  _480
REMARK  194  A    between atoms: _480  and  _481
REMARK  195  A    between atoms: _480  and  _483
REMARK  196  A    between atoms: _486  and  _488
REMARK  197  A    between atoms: _488  and  _489
REMARK  198  A    between atoms: _488  and  _491
REMARK  199  A    between atoms: _491  and  _492
REMARK  200  A    between atoms: _495  and  _497
REMARK  201  A    between atoms: _497  and  _498
REMARK  202  A    between atoms: _497  and  _500
REMARK  203  A    between atoms: _500  and  _501
REMARK  204  A    between atoms: _501  and  _502
REMARK  205  A    between atoms: _504  and  _506
REMARK  206  A    between atoms: _506  and  _507
REMARK  207  A    between atoms: _506  and  _509
REMARK  208  A    between atoms: _509  and  _510
REMARK  209  A    between atoms: _515  and  _516
REMARK  210  A    between atoms: _518  and  _520
REMARK  211  A    between atoms: _520  and  _521
REMARK  212  A    between atoms: _520  and  _523
REMARK  213  A    between atoms: _523  and  _524
REMARK  214  A    between atoms: _527  and  _529
REMARK  215  A    between atoms: _529  and  _530
REMARK  216  A    between atoms: _529  and  _532
REMARK  217  A    between atoms: _532  and  _533
REMARK  218  A    between atoms: _538  and  _540
REMARK  219  A    between atoms: _540  and  _541
REMARK  220  A    between atoms: _540  and  _543
REMARK  221  A    between atoms: _543  and  _544
REMARK  222  A    between atoms: _546  and  _548
REMARK  223  A    between atoms: _548  and  _549
REMARK  224  A    between atoms: _551  and  _553
REMARK  225  A    between atoms: _553  and  _554
REMARK  226  A    between atoms: _553  and  _556
REMARK  227  A    between atoms: _556  and  _557
REMARK  228  A    between atoms: _560  and  _562
REMARK  229  A    between atoms: _562  and  _563
REMARK  230  A    between atoms: _562  and  _565
REMARK  231  A    between atoms: _565  and  _566
REMARK  232  A    between atoms: _569  and  _571
REMARK  233  A    between atoms: _571  and  _572
REMARK  234  A    between atoms: _571  and  _574
REMARK  235  A    between atoms: _574  and  _575
REMARK  236  A    between atoms: _581  and  _583
REMARK  237  A    between atoms: _583  and  _584
REMARK  238  A    between atoms: _583  and  _586
REMARK  239  A    between atoms: _586  and  _587
REMARK  240  A    between atoms: _590  and  _592
REMARK  241  A    between atoms: _592  and  _593
REMARK  242  A    between atoms: _592  and  _595
REMARK  243  A    between atoms: _598  and  _600
REMARK  244  A    between atoms: _600  and  _601
REMARK  245  A    between atoms: _600  and  _603
REMARK  246  A    between atoms: _603  and  _604
REMARK  247  A    between atoms: _607  and  _609
REMARK  248  A    between atoms: _609  and  _610
REMARK  249  A    between atoms: _609  and  _612
REMARK  250  A    between atoms: _612  and  _613
REMARK  251  A    between atoms: _613  and  _614
REMARK  252  A    between atoms: _614  and  _615
REMARK  253  A    between atoms: _624  and  _626
REMARK  254  A    between atoms: _626  and  _627
REMARK  255  A    between atoms: _626  and  _629
REMARK  256  A    between atoms: _629  and  _630
REMARK                            x       y       z     vdW  Elec       q    Type
REMARK                         _______ _______ _______ _____ _____    ______ ____
ROOT
ATOM      1  O   HOH     1     -29.662  -4.490  -6.834  0.00  0.00    +0.000 OA
ENDROOT
TORSDOF 0
REMARK  Name = ../refined-set-2016/3ies/3ies_pocket.pdb
REMARK  256 active torsions:
REMARK  status: ('A' for Active; 'I' for Inactive)
REMARK    1  A    between atoms: _1  and  _3
REMARK    2  A    between atoms: _3  and  _4
REMARK    3  A    between atoms: _3  and  _6
REMARK    4  A    between atoms: _6  and  _7
REMARK    5  A    between atoms: _7  and  _8
REMARK    6  A    between atoms: _10  and  _12
REMARK    7  A    between atoms: _12  and  _13
REMARK    8  A    between atoms: _12  and  _15
REMARK    9  A    between atoms: _15  and  _16
REMARK   10  A    between atoms: _21  and  _23
REMARK   11  A    between atoms: _23  and  _24
REMARK   12  A    between atoms: _23  and  _26
REMARK   13  A    between atoms: _26  and  _27
REMARK   14  A    between atoms: _29  and  _31
REMARK   15  A    between atoms: _31  and  _32
REMARK   16  A    between atoms: _31  and  _34
REMARK   17  A    between atoms: _37  and  _39
REMARK   18  A    between atoms: _39  and  _40
REMARK   19  A    between atoms: _39  and  _42
REMARK   20  A    between atoms: _42  and  _43
REMARK   21  A    between atoms: _43  and  _44
REMARK   22  A    between atoms: _44  and  _45
REMARK   23  A    between atoms: _54  and  _56
REMARK   24  A    between atoms: _56  and  _57
REMARK   25  A    between atoms: _56  and  _59
REMARK   26  A    between atoms: _59  and  _60
REMARK   27  A    between atoms: _65  and  _67
REMARK   28  A    between atoms: _67  and  _68
REMARK   29  A    between atoms: _71  and  _73
REMARK   30  A    between atoms: _73  and  _74
REMARK   31  A    between atoms: _73  and  _76
REMARK   32  A    between atoms: _76  and  _77
REMARK   33  A    between atoms: _83  and  _85
REMARK   34  A    between atoms: _85  and  _86
REMARK   35  A    between atoms: _88  and  _90
REMARK   36  A    between atoms: _90  and  _91
REMARK   37  A    between atoms: _90  and  _93
REMARK   38  A    between atoms: _93  and  _94
REMARK   39  A    between atoms: _99  and  _101
REMARK   40  A    between atoms: _101  and  _102
REMARK   41  A    between atoms: _101  and  _104
REMARK   42  A    between atoms: _104  and  _105
REMARK   43  A    between atoms: _110  and  _112
REMARK   44  A    between atoms: _112  and  _113
REMARK   45  A    between atoms: _115  and  _117
REMARK   46  A    between atoms: _117  and  _118
REMARK   47  A    between atoms: _117  and  _120
REMARK   48  A    between atoms: _120  and  _121
REMARK   49  A    between atoms: _127  and  _129
REMARK   50  A    between atoms: _129  and  _130
REMARK   51  A    between atoms: _132  and  _134
REMARK   52  A    between atoms: _134  and  _135
REMARK   53  A    between atoms: _134  and  _137
REMARK   54  A    between atoms: _137  and  _138
REMARK   55  A    between atoms: _138  and  _139
REMARK   56  A    between atoms: _141  and  _143
REMARK   57  A    between atoms: _143  and  _144
REMARK   58  A    between atoms: _143  and  _146
REMARK   59  A    between atoms: _146  and  _147
REMARK   60  A    between atoms: _153  and  _155
REMARK   61  A    between atoms: _155  and  _156
REMARK   62  A    between atoms: _155  and  _158
REMARK   63  A    between atoms: _158  and  _159
REMARK   64  A    between atoms: _162  and  _164
REMARK   65  A    between atoms: _164  and  _165
REMARK   66  A    between atoms: _164  and  _167
REMARK   67  A    between atoms: _167  and  _168
REMARK   68  A    between atoms: _171  and  _173
REMARK   69  A    between atoms: _173  and  _174
REMARK   70  A    between atoms: _173  and  _176
REMARK   71  A    between atoms: _176  and  _177
REMARK   72  A    between atoms: _182  and  _183
REMARK   73  A    between atoms: _185  and  _187
REMARK   74  A    between atoms: _187  and  _188
REMARK   75  A    between atoms: _187  and  _190
REMARK   76  A    between atoms: _190  and  _191
REMARK   77  A    between atoms: _193  and  _195
REMARK   78  A    between atoms: _195  and  _196
REMARK   79  A    between atoms: _199  and  _201
REMARK   80  A    between atoms: _201  and  _202
REMARK   81  A    between atoms: _201  and  _204
REMARK   82  A    between atoms: _204  and  _205
REMARK   83  A    between atoms: _208  and  _210
REMARK   84  A    between atoms: _210  and  _211
REMARK   85  A    between atoms: _210  and  _213
REMARK   86  A    between atoms: _213  and  _214
REMARK   87  A    between atoms: _217  and  _219
REMARK   88  A    between atoms: _219  and  _220
REMARK   89  A    between atoms: _219  and  _222
REMARK   90  A    between atoms: _226  and  _227
REMARK   91  A    between atoms: _232  and  _234
REMARK   92  A    between atoms: _234  and  _235
REMARK   93  A    between atoms: _234  and  _237
REMARK   94  A    between atoms: _237  and  _238
REMARK   95  A    between atoms: _238  and  _239
REMARK   96  A    between atoms: _242  and  _244
REMARK   97  A    between atoms: _244  and  _245
REMARK   98  A    between atoms: _244  and  _247
REMARK   99  A    between atoms: _247  and  _248
REMARK  100  A    between atoms: _251  and  _253
REMARK  101  A    between atoms: _253  and  _254
REMARK  102  A    between atoms: _257  and  _259
REMARK  103  A    between atoms: _259  and  _260
REMARK  104  A    between atoms: _259  and  _262
REMARK  105  A    between atoms: _262  and  _263
REMARK  106  A    between atoms: _265  and  _267
REMARK  107  A    between atoms: _267  and  _268
REMARK  108  A    between atoms: _270  and  _272
REMARK  109  A    between atoms: _272  and  _273
REMARK  110  A    between atoms: _275  and  _277
REMARK  111  A    between atoms: _277  and  _278
REMARK  112  A    between atoms: _282  and  _283
REMARK  113  A    between atoms: _288  and  _290
REMARK  114  A    between atoms: _290  and  _291
REMARK  115  A    between atoms: _290  and  _293
REMARK  116  A    between atoms: _293  and  _294
REMARK  117  A    between atoms: _297  and  _299
REMARK  118  A    between atoms: _299  and  _300
REMARK  119  A    between atoms: _299  and  _302
REMARK  120  A    between atoms: _302  and  _303
REMARK  121  A    between atoms: _305  and  _307
REMARK  122  A    between atoms: _307  and  _308
REMARK  123  A    between atoms: _307  and  _310
REMARK  124  A    between atoms: _310  and  _311
REMARK  125  A    between atoms: _311  and  _312
REMARK  126  A    between atoms: _312  and  _313
REMARK  127  A    between atoms: _322  and  _324
REMARK  128  A    between atoms: _324  and  _325
REMARK  129  A    between atoms: _324  and  _327
REMARK  130  A    between atoms: _327  and  _328
REMARK  131  A    between atoms: _328  and  _329
REMARK  132  A    between atoms: _334  and  _336
REMARK  133  A    between atoms: _336  and  _337
REMARK  134  A    between atoms: _339  and  _341
REMARK  135  A    between atoms: _341  and  _342
REMARK  136  A    between atoms: _341  and  _344
REMARK  137  A    between atoms: _344  and  _345
REMARK  138  A    between atoms: _350  and  _351
REMARK  139  A    between atoms: _353  and  _355
REMARK  140  A    between atoms: _355  and  _356
REMARK  141  A    between atoms: _358  and  _360
REMARK  142  A    between atoms: _360  and  _361
REMARK  143  A    between atoms: _360  and  _363
REMARK  144  A    between atoms: _363  and  _364
REMARK  145  A    between atoms: _367  and  _369
REMARK  146  A    between atoms: _369  and  _370
REMARK  147  A    between atoms: _369  and  _372
REMARK  148  A    between atoms: _372  and  _373
REMARK  149  A    between atoms: _376  and  _378
REMARK  150  A    between atoms: _378  and  _379
REMARK  151  A    between atoms: _378  and  _381
REMARK  152  A    between atoms: _381  and  _382
REMARK  153  A    between atoms: _382  and  _383
REMARK  154  A    between atoms: _386  and  _388
REMARK  155  A    between atoms: _388  and  _389
REMARK  156  A    between atoms: _388  and  _391
REMARK  157  A    between atoms: _391  and  _392
REMARK  158  A    between atoms: _395  and  _397
REMARK  159  A    between atoms: _397  and  _398
REMARK  160  A    between atoms: _397  and  _400
REMARK  161  A    between atoms: _400  and  _401
REMARK  162  A    between atoms: _404  and  _406
REMARK  163  A    between atoms: _406  and  _407
REMARK  164  A    between atoms: _406  and  _409
REMARK  165  A    between atoms: _409  and  _410
REMARK  166  A    between atoms: _412  and  _414
REMARK  167  A    between atoms: _414  and  _415
REMARK  168  A    between atoms: _418  and  _420
REMARK  169  A    between atoms: _420  and  _421
REMARK  170  A    between atoms: _420  and  _423
REMARK  171  A    between atoms: _423  and  _424
REMARK  172  A    between atoms: _427  and  _429
REMARK  173  A    between atoms: _429  and  _430
REMARK  174  A    between atoms: _429  and  _432
REMARK  175  A    between atoms: _432  and  _433
REMARK  176  A    between atoms: _436  and  _438
REMARK  177  A    between atoms: _438  and  _439
REMARK  178  A    between atoms: _438  and  _441
REMARK  179  A    between atoms: _441  and  _442
REMARK  180  A    between atoms: _445  and  _447
REMARK  181  A    between atoms: _447  and  _448
REMARK  182  A    between atoms: _447  and  _450
REMARK  183  A    between atoms: _450  and  _451
REMARK  184  A    between atoms: _454  and  _456
REMARK  185  A    between atoms: _456  and  _457
REMARK  186  A    between atoms: _459  and  _461
REMARK  187  A    between atoms: _461  and  _462
REMARK  188  A    between atoms: _465  and  _467
REMARK  189  A    between atoms: _467  and  _468
REMARK  190  A    between atoms: _467  and  _470
REMARK  191  A    between atoms: _473  and  _475
REMARK  192  A    between atoms: _475  and  _476
REMARK  193  A    between atoms: _478  and  _480
REMARK  194  A    between atoms: _480  and  _481
REMARK  195  A    between atoms: _480  and  _483
REMARK  196  A    between atoms: _486  and  _488
REMARK  197  A    between atoms: _488  and  _489
REMARK  198  A    between atoms: _488  and  _491
REMARK  199  A    between atoms: _491  and  _492
REMARK  200  A    between atoms: _495  and  _497
REMARK  201  A    between atoms: _497  and  _498
REMARK  202  A    between atoms: _497  and  _500
REMARK  203  A    between atoms: _500  and  _501
REMARK  204  A    between atoms: _501  and  _502
REMARK  205  A    between atoms: _504  and  _506
REMARK  206  A    between atoms: _506  and  _507
REMARK  207  A    between atoms: _506  and  _509
REMARK  208  A    between atoms: _509  and  _510
REMARK  209  A    between atoms: _515  and  _516
REMARK  210  A    between atoms: _518  and  _520
REMARK  211  A    between atoms: _520  and  _521
REMARK  212  A    between atoms: _520  and  _523
REMARK  213  A    between atoms: _523  and  _524
REMARK  214  A    between atoms: _527  and  _529
REMARK  215  A    between atoms: _529  and  _530
REMARK  216  A    between atoms: _529  and  _532
REMARK  217  A    between atoms: _532  and  _533
REMARK  218  A    between atoms: _538  and  _540
REMARK  219  A    between atoms: _540  and  _541
REMARK  220  A    between atoms: _540  and  _543
REMARK  221  A    between atoms: _543  and  _544
REMARK  222  A    between atoms: _546  and  _548
REMARK  223  A    between atoms: _548  and  _549
REMARK  224  A    between atoms: _551  and  _553
REMARK  225  A    between atoms: _553  and  _554
REMARK  226  A    between atoms: _553  and  _556
REMARK  227  A    between atoms: _556  and  _557
REMARK  228  A    between atoms: _560  and  _562
REMARK  229  A    between atoms: _562  and  _563
REMARK  230  A    between atoms: _562  and  _565
REMARK  231  A    between atoms: _565  and  _566
REMARK  232  A    between atoms: _569  and  _571
REMARK  233  A    between atoms: _571  and  _572
REMARK  234  A    between atoms: _571  and  _574
REMARK  235  A    between atoms: _574  and  _575
REMARK  236  A    between atoms: _581  and  _583
REMARK  237  A    between atoms: _583  and  _584
REMARK  238  A    between atoms: _583  and  _586
REMARK  239  A    between atoms: _586  and  _587
REMARK  240  A    between atoms: _590  and  _592
REMARK  241  A    between atoms: _592  and  _593
REMARK  242  A    between atoms: _592  and  _595
REMARK  243  A    between atoms: _598  and  _600
REMARK  244  A    between atoms: _600  and  _601
REMARK  245  A    between atoms: _600  and  _603
REMARK  246  A    between atoms: _603  and  _604
REMARK  247  A    between atoms: _607  and  _609
REMARK  248  A    between atoms: _609  and  _610
REMARK  249  A    between atoms: _609  and  _612
REMARK  250  A    between atoms: _612  and  _613
REMARK  251  A    between atoms: _613  and  _614
REMARK  252  A    between atoms: _614  and  _615
REMARK  253  A    between atoms: _624  and  _626
REMARK  254  A    between atoms: _626  and  _627
REMARK  255  A    between atoms: _626  and  _629
REMARK  256  A    between atoms: _629  and  _630
REMARK                            x       y       z     vdW  Elec       q    Type
REMARK                         _______ _______ _______ _____ _____    ______ ____
ROOT
ATOM      1  O   HOH     1     -25.132  10.835 -19.347  0.00  0.00    +0.000 OA
ENDROOT
TORSDOF 0
REMARK  Name = ../refined-set-2016/3ies/3ies_pocket.pdb
REMARK  256 active torsions:
REMARK  status: ('A' for Active; 'I' for Inactive)
REMARK    1  A    between atoms: _1  and  _3
REMARK    2  A    between atoms: _3  and  _4
REMARK    3  A    between atoms: _3  and  _6
REMARK    4  A    between atoms: _6  and  _7
REMARK    5  A    between atoms: _7  and  _8
REMARK    6  A    between atoms: _10  and  _12
REMARK    7  A    between atoms: _12  and  _13
REMARK    8  A    between atoms: _12  and  _15
REMARK    9  A    between atoms: _15  and  _16
REMARK   10  A    between atoms: _21  and  _23
REMARK   11  A    between atoms: _23  and  _24
REMARK   12  A    between atoms: _23  and  _26
REMARK   13  A    between atoms: _26  and  _27
REMARK   14  A    between atoms: _29  and  _31
REMARK   15  A    between atoms: _31  and  _32
REMARK   16  A    between atoms: _31  and  _34
REMARK   17  A    between atoms: _37  and  _39
REMARK   18  A    between atoms: _39  and  _40
REMARK   19  A    between atoms: _39  and  _42
REMARK   20  A    between atoms: _42  and  _43
REMARK   21  A    between atoms: _43  and  _44
REMARK   22  A    between atoms: _44  and  _45
REMARK   23  A    between atoms: _54  and  _56
REMARK   24  A    between atoms: _56  and  _57
REMARK   25  A    between atoms: _56  and  _59
REMARK   26  A    between atoms: _59  and  _60
REMARK   27  A    between atoms: _65  and  _67
REMARK   28  A    between atoms: _67  and  _68
REMARK   29  A    between atoms: _71  and  _73
REMARK   30  A    between atoms: _73  and  _74
REMARK   31  A    between atoms: _73  and  _76
REMARK   32  A    between atoms: _76  and  _77
REMARK   33  A    between atoms: _83  and  _85
REMARK   34  A    between atoms: _85  and  _86
REMARK   35  A    between atoms: _88  and  _90
REMARK   36  A    between atoms: _90  and  _91
REMARK   37  A    between atoms: _90  and  _93
REMARK   38  A    between atoms: _93  and  _94
REMARK   39  A    between atoms: _99  and  _101
REMARK   40  A    between atoms: _101  and  _102
REMARK   41  A    between atoms: _101  and  _104
REMARK   42  A    between atoms: _104  and  _105
REMARK   43  A    between atoms: _110  and  _112
REMARK   44  A    between atoms: _112  and  _113
REMARK   45  A    between atoms: _115  and  _117
REMARK   46  A    between atoms: _117  and  _118
REMARK   47  A    between atoms: _117  and  _120
REMARK   48  A    between atoms: _120  and  _121
REMARK   49  A    between atoms: _127  and  _129
REMARK   50  A    between atoms: _129  and  _130
REMARK   51  A    between atoms: _132  and  _134
REMARK   52  A    between atoms: _134  and  _135
REMARK   53  A    between atoms: _134  and  _137
REMARK   54  A    between atoms: _137  and  _138
REMARK   55  A    between atoms: _138  and  _139
REMARK   56  A    between atoms: _141  and  _143
REMARK   57  A    between atoms: _143  and  _144
REMARK   58  A    between atoms: _143  and  _146
REMARK   59  A    between atoms: _146  and  _147
REMARK   60  A    between atoms: _153  and  _155
REMARK   61  A    between atoms: _155  and  _156
REMARK   62  A    between atoms: _155  and  _158
REMARK   63  A    between atoms: _158  and  _159
REMARK   64  A    between atoms: _162  and  _164
REMARK   65  A    between atoms: _164  and  _165
REMARK   66  A    between atoms: _164  and  _167
REMARK   67  A    between atoms: _167  and  _168
REMARK   68  A    between atoms: _171  and  _173
REMARK   69  A    between atoms: _173  and  _174
REMARK   70  A    between atoms: _173  and  _176
REMARK   71  A    between atoms: _176  and  _177
REMARK   72  A    between atoms: _182  and  _183
REMARK   73  A    between atoms: _185  and  _187
REMARK   74  A    between atoms: _187  and  _188
REMARK   75  A    between atoms: _187  and  _190
REMARK   76  A    between atoms: _190  and  _191
REMARK   77  A    between atoms: _193  and  _195
REMARK   78  A    between atoms: _195  and  _196
REMARK   79  A    between atoms: _199  and  _201
REMARK   80  A    between atoms: _201  and  _202
REMARK   81  A    between atoms: _201  and  _204
REMARK   82  A    between atoms: _204  and  _205
REMARK   83  A    between atoms: _208  and  _210
REMARK   84  A    between atoms: _210  and  _211
REMARK   85  A    between atoms: _210  and  _213
REMARK   86  A    between atoms: _213  and  _214
REMARK   87  A    between atoms: _217  and  _219
REMARK   88  A    between atoms: _219  and  _220
REMARK   89  A    between atoms: _219  and  _222
REMARK   90  A    between atoms: _226  and  _227
REMARK   91  A    between atoms: _232  and  _234
REMARK   92  A    between atoms: _234  and  _235
REMARK   93  A    between atoms: _234  and  _237
REMARK   94  A    between atoms: _237  and  _238
REMARK   95  A    between atoms: _238  and  _239
REMARK   96  A    between atoms: _242  and  _244
REMARK   97  A    between atoms: _244  and  _245
REMARK   98  A    between atoms: _244  and  _247
REMARK   99  A    between atoms: _247  and  _248
REMARK  100  A    between atoms: _251  and  _253
REMARK  101  A    between atoms: _253  and  _254
REMARK  102  A    between atoms: _257  and  _259
REMARK  103  A    between atoms: _259  and  _260
REMARK  104  A    between atoms: _259  and  _262
REMARK  105  A    between atoms: _262  and  _263
REMARK  106  A    between atoms: _265  and  _267
REMARK  107  A    between atoms: _267  and  _268
REMARK  108  A    between atoms: _270  and  _272
REMARK  109  A    between atoms: _272  and  _273
REMARK  110  A    between atoms: _275  and  _277
REMARK  111  A    between atoms: _277  and  _278
REMARK  112  A    between atoms: _282  and  _283
REMARK  113  A    between atoms: _288  and  _290
REMARK  114  A    between atoms: _290  and  _291
REMARK  115  A    between atoms: _290  and  _293
REMARK  116  A    between atoms: _293  and  _294
REMARK  117  A    between atoms: _297  and  _299
REMARK  118  A    between atoms: _299  and  _300
REMARK  119  A    between atoms: _299  and  _302
REMARK  120  A    between atoms: _302  and  _303
REMARK  121  A    between atoms: _305  and  _307
REMARK  122  A    between atoms: _307  and  _308
REMARK  123  A    between atoms: _307  and  _310
REMARK  124  A    between atoms: _310  and  _311
REMARK  125  A    between atoms: _311  and  _312
REMARK  126  A    between atoms: _312  and  _313
REMARK  127  A    between atoms: _322  and  _324
REMARK  128  A    between atoms: _324  and  _325
REMARK  129  A    between atoms: _324  and  _327
REMARK  130  A    between atoms: _327  and  _328
REMARK  131  A    between atoms: _328  and  _329
REMARK  132  A    between atoms: _334  and  _336
REMARK  133  A    between atoms: _336  and  _337
REMARK  134  A    between atoms: _339  and  _341
REMARK  135  A    between atoms: _341  and  _342
REMARK  136  A    between atoms: _341  and  _344
REMARK  137  A    between atoms: _344  and  _345
REMARK  138  A    between atoms: _350  and  _351
REMARK  139  A    between atoms: _353  and  _355
REMARK  140  A    between atoms: _355  and  _356
REMARK  141  A    between atoms: _358  and  _360
REMARK  142  A    between atoms: _360  and  _361
REMARK  143  A    between atoms: _360  and  _363
REMARK  144  A    between atoms: _363  and  _364
REMARK  145  A    between atoms: _367  and  _369
REMARK  146  A    between atoms: _369  and  _370
REMARK  147  A    between atoms: _369  and  _372
REMARK  148  A    between atoms: _372  and  _373
REMARK  149  A    between atoms: _376  and  _378
REMARK  150  A    between atoms: _378  and  _379
REMARK  151  A    between atoms: _378  and  _381
REMARK  152  A    between atoms: _381  and  _382
REMARK  153  A    between atoms: _382  and  _383
REMARK  154  A    between atoms: _386  and  _388
REMARK  155  A    between atoms: _388  and  _389
REMARK  156  A    between atoms: _388  and  _391
REMARK  157  A    between atoms: _391  and  _392
REMARK  158  A    between atoms: _395  and  _397
REMARK  159  A    between atoms: _397  and  _398
REMARK  160  A    between atoms: _397  and  _400
REMARK  161  A    between atoms: _400  and  _401
REMARK  162  A    between atoms: _404  and  _406
REMARK  163  A    between atoms: _406  and  _407
REMARK  164  A    between atoms: _406  and  _409
REMARK  165  A    between atoms: _409  and  _410
REMARK  166  A    between atoms: _412  and  _414
REMARK  167  A    between atoms: _414  and  _415
REMARK  168  A    between atoms: _418  and  _420
REMARK  169  A    between atoms: _420  and  _421
REMARK  170  A    between atoms: _420  and  _423
REMARK  171  A    between atoms: _423  and  _424
REMARK  172  A    between atoms: _427  and  _429
REMARK  173  A    between atoms: _429  and  _430
REMARK  174  A    between atoms: _429  and  _432
REMARK  175  A    between atoms: _432  and  _433
REMARK  176  A    between atoms: _436  and  _438
REMARK  177  A    between atoms: _438  and  _439
REMARK  178  A    between atoms: _438  and  _441
REMARK  179  A    between atoms: _441  and  _442
REMARK  180  A    between atoms: _445  and  _447
REMARK  181  A    between atoms: _447  and  _448
REMARK  182  A    between atoms: _447  and  _450
REMARK  183  A    between atoms: _450  and  _451
REMARK  184  A    between atoms: _454  and  _456
REMARK  185  A    between atoms: _456  and  _457
REMARK  186  A    between atoms: _459  and  _461
REMARK  187  A    between atoms: _461  and  _462
REMARK  188  A    between atoms: _465  and  _467
REMARK  189  A    between atoms: _467  and  _468
REMARK  190  A    between atoms: _467  and  _470
REMARK  191  A    between atoms: _473  and  _475
REMARK  192  A    between atoms: _475  and  _476
REMARK  193  A    between atoms: _478  and  _480
REMARK  194  A    between atoms: _480  and  _481
REMARK  195  A    between atoms: _480  and  _483
REMARK  196  A    between atoms: _486  and  _488
REMARK  197  A    between atoms: _488  and  _489
REMARK  198  A    between atoms: _488  and  _491
REMARK  199  A    between atoms: _491  and  _492
REMARK  200  A    between atoms: _495  and  _497
REMARK  201  A    between atoms: _497  and  _498
REMARK  202  A    between atoms: _497  and  _500
REMARK  203  A    between atoms: _500  and  _501
REMARK  204  A    between atoms: _501  and  _502
REMARK  205  A    between atoms: _504  and  _506
REMARK  206  A    between atoms: _506  and  _507
REMARK  207  A    between atoms: _506  and  _509
REMARK  208  A    between atoms: _509  and  _510
REMARK  209  A    between atoms: _515  and  _516
REMARK  210  A    between atoms: _518  and  _520
REMARK  211  A    between atoms: _520  and  _521
REMARK  212  A    between atoms: _520  and  _523
REMARK  213  A    between atoms: _523  and  _524
REMARK  214  A    between atoms: _527  and  _529
REMARK  215  A    between atoms: _529  and  _530
REMARK  216  A    between atoms: _529  and  _532
REMARK  217  A    between atoms: _532  and  _533
REMARK  218  A    between atoms: _538  and  _540
REMARK  219  A    between atoms: _540  and  _541
REMARK  220  A    between atoms: _540  and  _543
REMARK  221  A    between atoms: _543  and  _544
REMARK  222  A    between atoms: _546  and  _548
REMARK  223  A    between atoms: _548  and  _549
REMARK  224  A    between atoms: _551  and  _553
REMARK  225  A    between atoms: _553  and  _554
REMARK  226  A    between atoms: _553  and  _556
REMARK  227  A    between atoms: _556  and  _557
REMARK  228  A    between atoms: _560  and  _562
REMARK  229  A    between atoms: _562  and  _563
REMARK  230  A    between atoms: _562  and  _565
REMARK  231  A    between atoms: _565  and  _566
REMARK  232  A    between atoms: _569  and  _571
REMARK  233  A    between atoms: _571  and  _572
REMARK  234  A    between atoms: _571  and  _574
REMARK  235  A    between atoms: _574  and  _575
REMARK  236  A    between atoms: _581  and  _583
REMARK  237  A    between atoms: _583  and  _584
REMARK  238  A    between atoms: _583  and  _586
REMARK  239  A    between atoms: _586  and  _587
REMARK  240  A    between atoms: _590  and  _592
REMARK  241  A    between atoms: _592  and  _593
REMARK  242  A    between atoms: _592  and  _595
REMARK  243  A    between atoms: _598  and  _600
REMARK  244  A    between atoms: _600  and  _601
REMARK  245  A    between atoms: _600  and  _603
REMARK  246  A    between atoms: _603  and  _604
REMARK  247  A    between atoms: _607  and  _609
REMARK  248  A    between atoms: _609  and  _610
REMARK  249  A    between atoms: _609  and  _612
REMARK  250  A    between atoms: _612  and  _613
REMARK  251  A    between atoms: _613  and  _614
REMARK  252  A    between atoms: _614  and  _615
REMARK  253  A    between atoms: _624  and  _626
REMARK  254  A    between atoms: _626  and  _627
REMARK  255  A    between atoms: _626  and  _629
REMARK  256  A    between atoms: _629  and  _630
REMARK                            x       y       z     vdW  Elec       q    Type
REMARK                         _______ _______ _______ _____ _____    ______ ____
ROOT
ATOM      1  O   HOH     1     -23.928  -5.069  -7.885  0.00  0.00    +0.000 OA
ENDROOT
TORSDOF 0
REMARK  Name = ../refined-set-2016/3ies/3ies_pocket.pdb
REMARK  256 active torsions:
REMARK  status: ('A' for Active; 'I' for Inactive)
REMARK    1  A    between atoms: _1  and  _3
REMARK    2  A    between atoms: _3  and  _4
REMARK    3  A    between atoms: _3  and  _6
REMARK    4  A    between atoms: _6  and  _7
REMARK    5  A    between atoms: _7  and  _8
REMARK    6  A    between atoms: _10  and  _12
REMARK    7  A    between atoms: _12  and  _13
REMARK    8  A    between atoms: _12  and  _15
REMARK    9  A    between atoms: _15  and  _16
REMARK   10  A    between atoms: _21  and  _23
REMARK   11  A    between atoms: _23  and  _24
REMARK   12  A    between atoms: _23  and  _26
REMARK   13  A    between atoms: _26  and  _27
REMARK   14  A    between atoms: _29  and  _31
REMARK   15  A    between atoms: _31  and  _32
REMARK   16  A    between atoms: _31  and  _34
REMARK   17  A    between atoms: _37  and  _39
REMARK   18  A    between atoms: _39  and  _40
REMARK   19  A    between atoms: _39  and  _42
REMARK   20  A    between atoms: _42  and  _43
REMARK   21  A    between atoms: _43  and  _44
REMARK   22  A    between atoms: _44  and  _45
REMARK   23  A    between atoms: _54  and  _56
REMARK   24  A    between atoms: _56  and  _57
REMARK   25  A    between atoms: _56  and  _59
REMARK   26  A    between atoms: _59  and  _60
REMARK   27  A    between atoms: _65  and  _67
REMARK   28  A    between atoms: _67  and  _68
REMARK   29  A    between atoms: _71  and  _73
REMARK   30  A    between atoms: _73  and  _74
REMARK   31  A    between atoms: _73  and  _76
REMARK   32  A    between atoms: _76  and  _77
REMARK   33  A    between atoms: _83  and  _85
REMARK   34  A    between atoms: _85  and  _86
REMARK   35  A    between atoms: _88  and  _90
REMARK   36  A    between atoms: _90  and  _91
REMARK   37  A    between atoms: _90  and  _93
REMARK   38  A    between atoms: _93  and  _94
REMARK   39  A    between atoms: _99  and  _101
REMARK   40  A    between atoms: _101  and  _102
REMARK   41  A    between atoms: _101  and  _104
REMARK   42  A    between atoms: _104  and  _105
REMARK   43  A    between atoms: _110  and  _112
REMARK   44  A    between atoms: _112  and  _113
REMARK   45  A    between atoms: _115  and  _117
REMARK   46  A    between atoms: _117  and  _118
REMARK   47  A    between atoms: _117  and  _120
REMARK   48  A    between atoms: _120  and  _121
REMARK   49  A    between atoms: _127  and  _129
REMARK   50  A    between atoms: _129  and  _130
REMARK   51  A    between atoms: _132  and  _134
REMARK   52  A    between atoms: _134  and  _135
REMARK   53  A    between atoms: _134  and  _137
REMARK   54  A    between atoms: _137  and  _138
REMARK   55  A    between atoms: _138  and  _139
REMARK   56  A    between atoms: _141  and  _143
REMARK   57  A    between atoms: _143  and  _144
REMARK   58  A    between atoms: _143  and  _146
REMARK   59  A    between atoms: _146  and  _147
REMARK   60  A    between atoms: _153  and  _155
REMARK   61  A    between atoms: _155  and  _156
REMARK   62  A    between atoms: _155  and  _158
REMARK   63  A    between atoms: _158  and  _159
REMARK   64  A    between atoms: _162  and  _164
REMARK   65  A    between atoms: _164  and  _165
REMARK   66  A    between atoms: _164  and  _167
REMARK   67  A    between atoms: _167  and  _168
REMARK   68  A    between atoms: _171  and  _173
REMARK   69  A    between atoms: _173  and  _174
REMARK   70  A    between atoms: _173  and  _176
REMARK   71  A    between atoms: _176  and  _177
REMARK   72  A    between atoms: _182  and  _183
REMARK   73  A    between atoms: _185  and  _187
REMARK   74  A    between atoms: _187  and  _188
REMARK   75  A    between atoms: _187  and  _190
REMARK   76  A    between atoms: _190  and  _191
REMARK   77  A    between atoms: _193  and  _195
REMARK   78  A    between atoms: _195  and  _196
REMARK   79  A    between atoms: _199  and  _201
REMARK   80  A    between atoms: _201  and  _202
REMARK   81  A    between atoms: _201  and  _204
REMARK   82  A    between atoms: _204  and  _205
REMARK   83  A    between atoms: _208  and  _210
REMARK   84  A    between atoms: _210  and  _211
REMARK   85  A    between atoms: _210  and  _213
REMARK   86  A    between atoms: _213  and  _214
REMARK   87  A    between atoms: _217  and  _219
REMARK   88  A    between atoms: _219  and  _220
REMARK   89  A    between atoms: _219  and  _222
REMARK   90  A    between atoms: _226  and  _227
REMARK   91  A    between atoms: _232  and  _234
REMARK   92  A    between atoms: _234  and  _235
REMARK   93  A    between atoms: _234  and  _237
REMARK   94  A    between atoms: _237  and  _238
REMARK   95  A    between atoms: _238  and  _239
REMARK   96  A    between atoms: _242  and  _244
REMARK   97  A    between atoms: _244  and  _245
REMARK   98  A    between atoms: _244  and  _247
REMARK   99  A    between atoms: _247  and  _248
REMARK  100  A    between atoms: _251  and  _253
REMARK  101  A    between atoms: _253  and  _254
REMARK  102  A    between atoms: _257  and  _259
REMARK  103  A    between atoms: _259  and  _260
REMARK  104  A    between atoms: _259  and  _262
REMARK  105  A    between atoms: _262  and  _263
REMARK  106  A    between atoms: _265  and  _267
REMARK  107  A    between atoms: _267  and  _268
REMARK  108  A    between atoms: _270  and  _272
REMARK  109  A    between atoms: _272  and  _273
REMARK  110  A    between atoms: _275  and  _277
REMARK  111  A    between atoms: _277  and  _278
REMARK  112  A    between atoms: _282  and  _283
REMARK  113  A    between atoms: _288  and  _290
REMARK  114  A    between atoms: _290  and  _291
REMARK  115  A    between atoms: _290  and  _293
REMARK  116  A    between atoms: _293  and  _294
REMARK  117  A    between atoms: _297  and  _299
REMARK  118  A    between atoms: _299  and  _300
REMARK  119  A    between atoms: _299  and  _302
REMARK  120  A    between atoms: _302  and  _303
REMARK  121  A    between atoms: _305  and  _307
REMARK  122  A    between atoms: _307  and  _308
REMARK  123  A    between atoms: _307  and  _310
REMARK  124  A    between atoms: _310  and  _311
REMARK  125  A    between atoms: _311  and  _312
REMARK  126  A    between atoms: _312  and  _313
REMARK  127  A    between atoms: _322  and  _324
REMARK  128  A    between atoms: _324  and  _325
REMARK  129  A    between atoms: _324  and  _327
REMARK  130  A    between atoms: _327  and  _328
REMARK  131  A    between atoms: _328  and  _329
REMARK  132  A    between atoms: _334  and  _336
REMARK  133  A    between atoms: _336  and  _337
REMARK  134  A    between atoms: _339  and  _341
REMARK  135  A    between atoms: _341  and  _342
REMARK  136  A    between atoms: _341  and  _344
REMARK  137  A    between atoms: _344  and  _345
REMARK  138  A    between atoms: _350  and  _351
REMARK  139  A    between atoms: _353  and  _355
REMARK  140  A    between atoms: _355  and  _356
REMARK  141  A    between atoms: _358  and  _360
REMARK  142  A    between atoms: _360  and  _361
REMARK  143  A    between atoms: _360  and  _363
REMARK  144  A    between atoms: _363  and  _364
REMARK  145  A    between atoms: _367  and  _369
REMARK  146  A    between atoms: _369  and  _370
REMARK  147  A    between atoms: _369  and  _372
REMARK  148  A    between atoms: _372  and  _373
REMARK  149  A    between atoms: _376  and  _378
REMARK  150  A    between atoms: _378  and  _379
REMARK  151  A    between atoms: _378  and  _381
REMARK  152  A    between atoms: _381  and  _382
REMARK  153  A    between atoms: _382  and  _383
REMARK  154  A    between atoms: _386  and  _388
REMARK  155  A    between atoms: _388  and  _389
REMARK  156  A    between atoms: _388  and  _391
REMARK  157  A    between atoms: _391  and  _392
REMARK  158  A    between atoms: _395  and  _397
REMARK  159  A    between atoms: _397  and  _398
REMARK  160  A    between atoms: _397  and  _400
REMARK  161  A    between atoms: _400  and  _401
REMARK  162  A    between atoms: _404  and  _406
REMARK  163  A    between atoms: _406  and  _407
REMARK  164  A    between atoms: _406  and  _409
REMARK  165  A    between atoms: _409  and  _410
REMARK  166  A    between atoms: _412  and  _414
REMARK  167  A    between atoms: _414  and  _415
REMARK  168  A    between atoms: _418  and  _420
REMARK  169  A    between atoms: _420  and  _421
REMARK  170  A    between atoms: _420  and  _423
REMARK  171  A    between atoms: _423  and  _424
REMARK  172  A    between atoms: _427  and  _429
REMARK  173  A    between atoms: _429  and  _430
REMARK  174  A    between atoms: _429  and  _432
REMARK  175  A    between atoms: _432  and  _433
REMARK  176  A    between atoms: _436  and  _438
REMARK  177  A    between atoms: _438  and  _439
REMARK  178  A    between atoms: _438  and  _441
REMARK  179  A    between atoms: _441  and  _442
REMARK  180  A    between atoms: _445  and  _447
REMARK  181  A    between atoms: _447  and  _448
REMARK  182  A    between atoms: _447  and  _450
REMARK  183  A    between atoms: _450  and  _451
REMARK  184  A    between atoms: _454  and  _456
REMARK  185  A    between atoms: _456  and  _457
REMARK  186  A    between atoms: _459  and  _461
REMARK  187  A    between atoms: _461  and  _462
REMARK  188  A    between atoms: _465  and  _467
REMARK  189  A    between atoms: _467  and  _468
REMARK  190  A    between atoms: _467  and  _470
REMARK  191  A    between atoms: _473  and  _475
REMARK  192  A    between atoms: _475  and  _476
REMARK  193  A    between atoms: _478  and  _480
REMARK  194  A    between atoms: _480  and  _481
REMARK  195  A    between atoms: _480  and  _483
REMARK  196  A    between atoms: _486  and  _488
REMARK  197  A    between atoms: _488  and  _489
REMARK  198  A    between atoms: _488  and  _491
REMARK  199  A    between atoms: _491  and  _492
REMARK  200  A    between atoms: _495  and  _497
REMARK  201  A    between atoms: _497  and  _498
REMARK  202  A    between atoms: _497  and  _500
REMARK  203  A    between atoms: _500  and  _501
REMARK  204  A    between atoms: _501  and  _502
REMARK  205  A    between atoms: _504  and  _506
REMARK  206  A    between atoms: _506  and  _507
REMARK  207  A    between atoms: _506  and  _509
REMARK  208  A    between atoms: _509  and  _510
REMARK  209  A    between atoms: _515  and  _516
REMARK  210  A    between atoms: _518  and  _520
REMARK  211  A    between atoms: _520  and  _521
REMARK  212  A    between atoms: _520  and  _523
REMARK  213  A    between atoms: _523  and  _524
REMARK  214  A    between atoms: _527  and  _529
REMARK  215  A    between atoms: _529  and  _530
REMARK  216  A    between atoms: _529  and  _532
REMARK  217  A    between atoms: _532  and  _533
REMARK  218  A    between atoms: _538  and  _540
REMARK  219  A    between atoms: _540  and  _541
REMARK  220  A    between atoms: _540  and  _543
REMARK  221  A    between atoms: _543  and  _544
REMARK  222  A    between atoms: _546  and  _548
REMARK  223  A    between atoms: _548  and  _549
REMARK  224  A    between atoms: _551  and  _553
REMARK  225  A    between atoms: _553  and  _554
REMARK  226  A    between atoms: _553  and  _556
REMARK  227  A    between atoms: _556  and  _557
REMARK  228  A    between atoms: _560  and  _562
REMARK  229  A    between atoms: _562  and  _563
REMARK  230  A    between atoms: _562  and  _565
REMARK  231  A    between atoms: _565  and  _566
REMARK  232  A    between atoms: _569  and  _571
REMARK  233  A    between atoms: _571  and  _572
REMARK  234  A    between atoms: _571  and  _574
REMARK  235  A    between atoms: _574  and  _575
REMARK  236  A    between atoms: _581  and  _583
REMARK  237  A    between atoms: _583  and  _584
REMARK  238  A    between atoms: _583  and  _586
REMARK  239  A    between atoms: _586  and  _587
REMARK  240  A    between atoms: _590  and  _592
REMARK  241  A    between atoms: _592  and  _593
REMARK  242  A    between atoms: _592  and  _595
REMARK  243  A    between atoms: _598  and  _600
REMARK  244  A    between atoms: _600  and  _601
REMARK  245  A    between atoms: _600  and  _603
REMARK  246  A    between atoms: _603  and  _604
REMARK  247  A    between atoms: _607  and  _609
REMARK  248  A    between atoms: _609  and  _610
REMARK  249  A    between atoms: _609  and  _612
REMARK  250  A    between atoms: _612  and  _613
REMARK  251  A    between atoms: _613  and  _614
REMARK  252  A    between atoms: _614  and  _615
REMARK  253  A    between atoms: _624  and  _626
REMARK  254  A    between atoms: _626  and  _627
REMARK  255  A    between atoms: _626  and  _629
REMARK  256  A    between atoms: _629  and  _630
REMARK                            x       y       z     vdW  Elec       q    Type
REMARK                         _______ _______ _______ _____ _____    ______ ____
ROOT
ATOM      1  O   HOH     1     -26.911  12.330  -2.025  0.00  0.00    +0.000 OA
ENDROOT
TORSDOF 0
REMARK  Name = ../refined-set-2016/3ies/3ies_pocket.pdb
REMARK  256 active torsions:
REMARK  status: ('A' for Active; 'I' for Inactive)
REMARK    1  A    between atoms: _1  and  _3
REMARK    2  A    between atoms: _3  and  _4
REMARK    3  A    between atoms: _3  and  _6
REMARK    4  A    between atoms: _6  and  _7
REMARK    5  A    between atoms: _7  and  _8
REMARK    6  A    between atoms: _10  and  _12
REMARK    7  A    between atoms: _12  and  _13
REMARK    8  A    between atoms: _12  and  _15
REMARK    9  A    between atoms: _15  and  _16
REMARK   10  A    between atoms: _21  and  _23
REMARK   11  A    between atoms: _23  and  _24
REMARK   12  A    between atoms: _23  and  _26
REMARK   13  A    between atoms: _26  and  _27
REMARK   14  A    between atoms: _29  and  _31
REMARK   15  A    between atoms: _31  and  _32
REMARK   16  A    between atoms: _31  and  _34
REMARK   17  A    between atoms: _37  and  _39
REMARK   18  A    between atoms: _39  and  _40
REMARK   19  A    between atoms: _39  and  _42
REMARK   20  A    between atoms: _42  and  _43
REMARK   21  A    between atoms: _43  and  _44
REMARK   22  A    between atoms: _44  and  _45
REMARK   23  A    between atoms: _54  and  _56
REMARK   24  A    between atoms: _56  and  _57
REMARK   25  A    between atoms: _56  and  _59
REMARK   26  A    between atoms: _59  and  _60
REMARK   27  A    between atoms: _65  and  _67
REMARK   28  A    between atoms: _67  and  _68
REMARK   29  A    between atoms: _71  and  _73
REMARK   30  A    between atoms: _73  and  _74
REMARK   31  A    between atoms: _73  and  _76
REMARK   32  A    between atoms: _76  and  _77
REMARK   33  A    between atoms: _83  and  _85
REMARK   34  A    between atoms: _85  and  _86
REMARK   35  A    between atoms: _88  and  _90
REMARK   36  A    between atoms: _90  and  _91
REMARK   37  A    between atoms: _90  and  _93
REMARK   38  A    between atoms: _93  and  _94
REMARK   39  A    between atoms: _99  and  _101
REMARK   40  A    between atoms: _101  and  _102
REMARK   41  A    between atoms: _101  and  _104
REMARK   42  A    between atoms: _104  and  _105
REMARK   43  A    between atoms: _110  and  _112
REMARK   44  A    between atoms: _112  and  _113
REMARK   45  A    between atoms: _115  and  _117
REMARK   46  A    between atoms: _117  and  _118
REMARK   47  A    between atoms: _117  and  _120
REMARK   48  A    between atoms: _120  and  _121
REMARK   49  A    between atoms: _127  and  _129
REMARK   50  A    between atoms: _129  and  _130
REMARK   51  A    between atoms: _132  and  _134
REMARK   52  A    between atoms: _134  and  _135
REMARK   53  A    between atoms: _134  and  _137
REMARK   54  A    between atoms: _137  and  _138
REMARK   55  A    between atoms: _138  and  _139
REMARK   56  A    between atoms: _141  and  _143
REMARK   57  A    between atoms: _143  and  _144
REMARK   58  A    between atoms: _143  and  _146
REMARK   59  A    between atoms: _146  and  _147
REMARK   60  A    between atoms: _153  and  _155
REMARK   61  A    between atoms: _155  and  _156
REMARK   62  A    between atoms: _155  and  _158
REMARK   63  A    between atoms: _158  and  _159
REMARK   64  A    between atoms: _162  and  _164
REMARK   65  A    between atoms: _164  and  _165
REMARK   66  A    between atoms: _164  and  _167
REMARK   67  A    between atoms: _167  and  _168
REMARK   68  A    between atoms: _171  and  _173
REMARK   69  A    between atoms: _173  and  _174
REMARK   70  A    between atoms: _173  and  _176
REMARK   71  A    between atoms: _176  and  _177
REMARK   72  A    between atoms: _182  and  _183
REMARK   73  A    between atoms: _185  and  _187
REMARK   74  A    between atoms: _187  and  _188
REMARK   75  A    between atoms: _187  and  _190
REMARK   76  A    between atoms: _190  and  _191
REMARK   77  A    between atoms: _193  and  _195
REMARK   78  A    between atoms: _195  and  _196
REMARK   79  A    between atoms: _199  and  _201
REMARK   80  A    between atoms: _201  and  _202
REMARK   81  A    between atoms: _201  and  _204
REMARK   82  A    between atoms: _204  and  _205
REMARK   83  A    between atoms: _208  and  _210
REMARK   84  A    between atoms: _210  and  _211
REMARK   85  A    between atoms: _210  and  _213
REMARK   86  A    between atoms: _213  and  _214
REMARK   87  A    between atoms: _217  and  _219
REMARK   88  A    between atoms: _219  and  _220
REMARK   89  A    between atoms: _219  and  _222
REMARK   90  A    between atoms: _226  and  _227
REMARK   91  A    between atoms: _232  and  _234
REMARK   92  A    between atoms: _234  and  _235
REMARK   93  A    between atoms: _234  and  _237
REMARK   94  A    between atoms: _237  and  _238
REMARK   95  A    between atoms: _238  and  _239
REMARK   96  A    between atoms: _242  and  _244
REMARK   97  A    between atoms: _244  and  _245
REMARK   98  A    between atoms: _244  and  _247
REMARK   99  A    between atoms: _247  and  _248
REMARK  100  A    between atoms: _251  and  _253
REMARK  101  A    between atoms: _253  and  _254
REMARK  102  A    between atoms: _257  and  _259
REMARK  103  A    between atoms: _259  and  _260
REMARK  104  A    between atoms: _259  and  _262
REMARK  105  A    between atoms: _262  and  _263
REMARK  106  A    between atoms: _265  and  _267
REMARK  107  A    between atoms: _267  and  _268
REMARK  108  A    between atoms: _270  and  _272
REMARK  109  A    between atoms: _272  and  _273
REMARK  110  A    between atoms: _275  and  _277
REMARK  111  A    between atoms: _277  and  _278
REMARK  112  A    between atoms: _282  and  _283
REMARK  113  A    between atoms: _288  and  _290
REMARK  114  A    between atoms: _290  and  _291
REMARK  115  A    between atoms: _290  and  _293
REMARK  116  A    between atoms: _293  and  _294
REMARK  117  A    between atoms: _297  and  _299
REMARK  118  A    between atoms: _299  and  _300
REMARK  119  A    between atoms: _299  and  _302
REMARK  120  A    between atoms: _302  and  _303
REMARK  121  A    between atoms: _305  and  _307
REMARK  122  A    between atoms: _307  and  _308
REMARK  123  A    between atoms: _307  and  _310
REMARK  124  A    between atoms: _310  and  _311
REMARK  125  A    between atoms: _311  and  _312
REMARK  126  A    between atoms: _312  and  _313
REMARK  127  A    between atoms: _322  and  _324
REMARK  128  A    between atoms: _324  and  _325
REMARK  129  A    between atoms: _324  and  _327
REMARK  130  A    between atoms: _327  and  _328
REMARK  131  A    between atoms: _328  and  _329
REMARK  132  A    between atoms: _334  and  _336
REMARK  133  A    between atoms: _336  and  _337
REMARK  134  A    between atoms: _339  and  _341
REMARK  135  A    between atoms: _341  and  _342
REMARK  136  A    between atoms: _341  and  _344
REMARK  137  A    between atoms: _344  and  _345
REMARK  138  A    between atoms: _350  and  _351
REMARK  139  A    between atoms: _353  and  _355
REMARK  140  A    between atoms: _355  and  _356
REMARK  141  A    between atoms: _358  and  _360
REMARK  142  A    between atoms: _360  and  _361
REMARK  143  A    between atoms: _360  and  _363
REMARK  144  A    between atoms: _363  and  _364
REMARK  145  A    between atoms: _367  and  _369
REMARK  146  A    between atoms: _369  and  _370
REMARK  147  A    between atoms: _369  and  _372
REMARK  148  A    between atoms: _372  and  _373
REMARK  149  A    between atoms: _376  and  _378
REMARK  150  A    between atoms: _378  and  _379
REMARK  151  A    between atoms: _378  and  _381
REMARK  152  A    between atoms: _381  and  _382
REMARK  153  A    between atoms: _382  and  _383
REMARK  154  A    between atoms: _386  and  _388
REMARK  155  A    between atoms: _388  and  _389
REMARK  156  A    between atoms: _388  and  _391
REMARK  157  A    between atoms: _391  and  _392
REMARK  158  A    between atoms: _395  and  _397
REMARK  159  A    between atoms: _397  and  _398
REMARK  160  A    between atoms: _397  and  _400
REMARK  161  A    between atoms: _400  and  _401
REMARK  162  A    between atoms: _404  and  _406
REMARK  163  A    between atoms: _406  and  _407
REMARK  164  A    between atoms: _406  and  _409
REMARK  165  A    between atoms: _409  and  _410
REMARK  166  A    between atoms: _412  and  _414
REMARK  167  A    between atoms: _414  and  _415
REMARK  168  A    between atoms: _418  and  _420
REMARK  169  A    between atoms: _420  and  _421
REMARK  170  A    between atoms: _420  and  _423
REMARK  171  A    between atoms: _423  and  _424
REMARK  172  A    between atoms: _427  and  _429
REMARK  173  A    between atoms: _429  and  _430
REMARK  174  A    between atoms: _429  and  _432
REMARK  175  A    between atoms: _432  and  _433
REMARK  176  A    between atoms: _436  and  _438
REMARK  177  A    between atoms: _438  and  _439
REMARK  178  A    between atoms: _438  and  _441
REMARK  179  A    between atoms: _441  and  _442
REMARK  180  A    between atoms: _445  and  _447
REMARK  181  A    between atoms: _447  and  _448
REMARK  182  A    between atoms: _447  and  _450
REMARK  183  A    between atoms: _450  and  _451
REMARK  184  A    between atoms: _454  and  _456
REMARK  185  A    between atoms: _456  and  _457
REMARK  186  A    between atoms: _459  and  _461
REMARK  187  A    between atoms: _461  and  _462
REMARK  188  A    between atoms: _465  and  _467
REMARK  189  A    between atoms: _467  and  _468
REMARK  190  A    between atoms: _467  and  _470
REMARK  191  A    between atoms: _473  and  _475
REMARK  192  A    between atoms: _475  and  _476
REMARK  193  A    between atoms: _478  and  _480
REMARK  194  A    between atoms: _480  and  _481
REMARK  195  A    between atoms: _480  and  _483
REMARK  196  A    between atoms: _486  and  _488
REMARK  197  A    between atoms: _488  and  _489
REMARK  198  A    between atoms: _488  and  _491
REMARK  199  A    between atoms: _491  and  _492
REMARK  200  A    between atoms: _495  and  _497
REMARK  201  A    between atoms: _497  and  _498
REMARK  202  A    between atoms: _497  and  _500
REMARK  203  A    between atoms: _500  and  _501
REMARK  204  A    between atoms: _501  and  _502
REMARK  205  A    between atoms: _504  and  _506
REMARK  206  A    between atoms: _506  and  _507
REMARK  207  A    between atoms: _506  and  _509
REMARK  208  A    between atoms: _509  and  _510
REMARK  209  A    between atoms: _515  and  _516
REMARK  210  A    between atoms: _518  and  _520
REMARK  211  A    between atoms: _520  and  _521
REMARK  212  A    between atoms: _520  and  _523
REMARK  213  A    between atoms: _523  and  _524
REMARK  214  A    between atoms: _527  and  _529
REMARK  215  A    between atoms: _529  and  _530
REMARK  216  A    between atoms: _529  and  _532
REMARK  217  A    between atoms: _532  and  _533
REMARK  218  A    between atoms: _538  and  _540
REMARK  219  A    between atoms: _540  and  _541
REMARK  220  A    between atoms: _540  and  _543
REMARK  221  A    between atoms: _543  and  _544
REMARK  222  A    between atoms: _546  and  _548
REMARK  223  A    between atoms: _548  and  _549
REMARK  224  A    between atoms: _551  and  _553
REMARK  225  A    between atoms: _553  and  _554
REMARK  226  A    between atoms: _553  and  _556
REMARK  227  A    between atoms: _556  and  _557
REMARK  228  A    between atoms: _560  and  _562
REMARK  229  A    between atoms: _562  and  _563
REMARK  230  A    between atoms: _562  and  _565
REMARK  231  A    between atoms: _565  and  _566
REMARK  232  A    between atoms: _569  and  _571
REMARK  233  A    between atoms: _571  and  _572
REMARK  234  A    between atoms: _571  and  _574
REMARK  235  A    between atoms: _574  and  _575
REMARK  236  A    between atoms: _581  and  _583
REMARK  237  A    between atoms: _583  and  _584
REMARK  238  A    between atoms: _583  and  _586
REMARK  239  A    between atoms: _586  and  _587
REMARK  240  A    between atoms: _590  and  _592
REMARK  241  A    between atoms: _592  and  _593
REMARK  242  A    between atoms: _592  and  _595
REMARK  243  A    between atoms: _598  and  _600
REMARK  244  A    between atoms: _600  and  _601
REMARK  245  A    between atoms: _600  and  _603
REMARK  246  A    between atoms: _603  and  _604
REMARK  247  A    between atoms: _607  and  _609
REMARK  248  A    between atoms: _609  and  _610
REMARK  249  A    between atoms: _609  and  _612
REMARK  250  A    between atoms: _612  and  _613
REMARK  251  A    between atoms: _613  and  _614
REMARK  252  A    between atoms: _614  and  _615
REMARK  253  A    between atoms: _624  and  _626
REMARK  254  A    between atoms: _626  and  _627
REMARK  255  A    between atoms: _626  and  _629
REMARK  256  A    between atoms: _629  and  _630
REMARK                            x       y       z     vdW  Elec       q    Type
REMARK                         _______ _______ _______ _____ _____    ______ ____
ROOT
ATOM      1  O   HOH     1     -27.788  14.134  -5.390  0.00  0.00    +0.000 OA
ENDROOT
TORSDOF 0
REMARK  Name = ../refined-set-2016/3ies/3ies_pocket.pdb
REMARK  256 active torsions:
REMARK  status: ('A' for Active; 'I' for Inactive)
REMARK    1  A    between atoms: _1  and  _3
REMARK    2  A    between atoms: _3  and  _4
REMARK    3  A    between atoms: _3  and  _6
REMARK    4  A    between atoms: _6  and  _7
REMARK    5  A    between atoms: _7  and  _8
REMARK    6  A    between atoms: _10  and  _12
REMARK    7  A    between atoms: _12  and  _13
REMARK    8  A    between atoms: _12  and  _15
REMARK    9  A    between atoms: _15  and  _16
REMARK   10  A    between atoms: _21  and  _23
REMARK   11  A    between atoms: _23  and  _24
REMARK   12  A    between atoms: _23  and  _26
REMARK   13  A    between atoms: _26  and  _27
REMARK   14  A    between atoms: _29  and  _31
REMARK   15  A    between atoms: _31  and  _32
REMARK   16  A    between atoms: _31  and  _34
REMARK   17  A    between atoms: _37  and  _39
REMARK   18  A    between atoms: _39  and  _40
REMARK   19  A    between atoms: _39  and  _42
REMARK   20  A    between atoms: _42  and  _43
REMARK   21  A    between atoms: _43  and  _44
REMARK   22  A    between atoms: _44  and  _45
REMARK   23  A    between atoms: _54  and  _56
REMARK   24  A    between atoms: _56  and  _57
REMARK   25  A    between atoms: _56  and  _59
REMARK   26  A    between atoms: _59  and  _60
REMARK   27  A    between atoms: _65  and  _67
REMARK   28  A    between atoms: _67  and  _68
REMARK   29  A    between atoms: _71  and  _73
REMARK   30  A    between atoms: _73  and  _74
REMARK   31  A    between atoms: _73  and  _76
REMARK   32  A    between atoms: _76  and  _77
REMARK   33  A    between atoms: _83  and  _85
REMARK   34  A    between atoms: _85  and  _86
REMARK   35  A    between atoms: _88  and  _90
REMARK   36  A    between atoms: _90  and  _91
REMARK   37  A    between atoms: _90  and  _93
REMARK   38  A    between atoms: _93  and  _94
REMARK   39  A    between atoms: _99  and  _101
REMARK   40  A    between atoms: _101  and  _102
REMARK   41  A    between atoms: _101  and  _104
REMARK   42  A    between atoms: _104  and  _105
REMARK   43  A    between atoms: _110  and  _112
REMARK   44  A    between atoms: _112  and  _113
REMARK   45  A    between atoms: _115  and  _117
REMARK   46  A    between atoms: _117  and  _118
REMARK   47  A    between atoms: _117  and  _120
REMARK   48  A    between atoms: _120  and  _121
REMARK   49  A    between atoms: _127  and  _129
REMARK   50  A    between atoms: _129  and  _130
REMARK   51  A    between atoms: _132  and  _134
REMARK   52  A    between atoms: _134  and  _135
REMARK   53  A    between atoms: _134  and  _137
REMARK   54  A    between atoms: _137  and  _138
REMARK   55  A    between atoms: _138  and  _139
REMARK   56  A    between atoms: _141  and  _143
REMARK   57  A    between atoms: _143  and  _144
REMARK   58  A    between atoms: _143  and  _146
REMARK   59  A    between atoms: _146  and  _147
REMARK   60  A    between atoms: _153  and  _155
REMARK   61  A    between atoms: _155  and  _156
REMARK   62  A    between atoms: _155  and  _158
REMARK   63  A    between atoms: _158  and  _159
REMARK   64  A    between atoms: _162  and  _164
REMARK   65  A    between atoms: _164  and  _165
REMARK   66  A    between atoms: _164  and  _167
REMARK   67  A    between atoms: _167  and  _168
REMARK   68  A    between atoms: _171  and  _173
REMARK   69  A    between atoms: _173  and  _174
REMARK   70  A    between atoms: _173  and  _176
REMARK   71  A    between atoms: _176  and  _177
REMARK   72  A    between atoms: _182  and  _183
REMARK   73  A    between atoms: _185  and  _187
REMARK   74  A    between atoms: _187  and  _188
REMARK   75  A    between atoms: _187  and  _190
REMARK   76  A    between atoms: _190  and  _191
REMARK   77  A    between atoms: _193  and  _195
REMARK   78  A    between atoms: _195  and  _196
REMARK   79  A    between atoms: _199  and  _201
REMARK   80  A    between atoms: _201  and  _202
REMARK   81  A    between atoms: _201  and  _204
REMARK   82  A    between atoms: _204  and  _205
REMARK   83  A    between atoms: _208  and  _210
REMARK   84  A    between atoms: _210  and  _211
REMARK   85  A    between atoms: _210  and  _213
REMARK   86  A    between atoms: _213  and  _214
REMARK   87  A    between atoms: _217  and  _219
REMARK   88  A    between atoms: _219  and  _220
REMARK   89  A    between atoms: _219  and  _222
REMARK   90  A    between atoms: _226  and  _227
REMARK   91  A    between atoms: _232  and  _234
REMARK   92  A    between atoms: _234  and  _235
REMARK   93  A    between atoms: _234  and  _237
REMARK   94  A    between atoms: _237  and  _238
REMARK   95  A    between atoms: _238  and  _239
REMARK   96  A    between atoms: _242  and  _244
REMARK   97  A    between atoms: _244  and  _245
REMARK   98  A    between atoms: _244  and  _247
REMARK   99  A    between atoms: _247  and  _248
REMARK  100  A    between atoms: _251  and  _253
REMARK  101  A    between atoms: _253  and  _254
REMARK  102  A    between atoms: _257  and  _259
REMARK  103  A    between atoms: _259  and  _260
REMARK  104  A    between atoms: _259  and  _262
REMARK  105  A    between atoms: _262  and  _263
REMARK  106  A    between atoms: _265  and  _267
REMARK  107  A    between atoms: _267  and  _268
REMARK  108  A    between atoms: _270  and  _272
REMARK  109  A    between atoms: _272  and  _273
REMARK  110  A    between atoms: _275  and  _277
REMARK  111  A    between atoms: _277  and  _278
REMARK  112  A    between atoms: _282  and  _283
REMARK  113  A    between atoms: _288  and  _290
REMARK  114  A    between atoms: _290  and  _291
REMARK  115  A    between atoms: _290  and  _293
REMARK  116  A    between atoms: _293  and  _294
REMARK  117  A    between atoms: _297  and  _299
REMARK  118  A    between atoms: _299  and  _300
REMARK  119  A    between atoms: _299  and  _302
REMARK  120  A    between atoms: _302  and  _303
REMARK  121  A    between atoms: _305  and  _307
REMARK  122  A    between atoms: _307  and  _308
REMARK  123  A    between atoms: _307  and  _310
REMARK  124  A    between atoms: _310  and  _311
REMARK  125  A    between atoms: _311  and  _312
REMARK  126  A    between atoms: _312  and  _313
REMARK  127  A    between atoms: _322  and  _324
REMARK  128  A    between atoms: _324  and  _325
REMARK  129  A    between atoms: _324  and  _327
REMARK  130  A    between atoms: _327  and  _328
REMARK  131  A    between atoms: _328  and  _329
REMARK  132  A    between atoms: _334  and  _336
REMARK  133  A    between atoms: _336  and  _337
REMARK  134  A    between atoms: _339  and  _341
REMARK  135  A    between atoms: _341  and  _342
REMARK  136  A    between atoms: _341  and  _344
REMARK  137  A    between atoms: _344  and  _345
REMARK  138  A    between atoms: _350  and  _351
REMARK  139  A    between atoms: _353  and  _355
REMARK  140  A    between atoms: _355  and  _356
REMARK  141  A    between atoms: _358  and  _360
REMARK  142  A    between atoms: _360  and  _361
REMARK  143  A    between atoms: _360  and  _363
REMARK  144  A    between atoms: _363  and  _364
REMARK  145  A    between atoms: _367  and  _369
REMARK  146  A    between atoms: _369  and  _370
REMARK  147  A    between atoms: _369  and  _372
REMARK  148  A    between atoms: _372  and  _373
REMARK  149  A    between atoms: _376  and  _378
REMARK  150  A    between atoms: _378  and  _379
REMARK  151  A    between atoms: _378  and  _381
REMARK  152  A    between atoms: _381  and  _382
REMARK  153  A    between atoms: _382  and  _383
REMARK  154  A    between atoms: _386  and  _388
REMARK  155  A    between atoms: _388  and  _389
REMARK  156  A    between atoms: _388  and  _391
REMARK  157  A    between atoms: _391  and  _392
REMARK  158  A    between atoms: _395  and  _397
REMARK  159  A    between atoms: _397  and  _398
REMARK  160  A    between atoms: _397  and  _400
REMARK  161  A    between atoms: _400  and  _401
REMARK  162  A    between atoms: _404  and  _406
REMARK  163  A    between atoms: _406  and  _407
REMARK  164  A    between atoms: _406  and  _409
REMARK  165  A    between atoms: _409  and  _410
REMARK  166  A    between atoms: _412  and  _414
REMARK  167  A    between atoms: _414  and  _415
REMARK  168  A    between atoms: _418  and  _420
REMARK  169  A    between atoms: _420  and  _421
REMARK  170  A    between atoms: _420  and  _423
REMARK  171  A    between atoms: _423  and  _424
REMARK  172  A    between atoms: _427  and  _429
REMARK  173  A    between atoms: _429  and  _430
REMARK  174  A    between atoms: _429  and  _432
REMARK  175  A    between atoms: _432  and  _433
REMARK  176  A    between atoms: _436  and  _438
REMARK  177  A    between atoms: _438  and  _439
REMARK  178  A    between atoms: _438  and  _441
REMARK  179  A    between atoms: _441  and  _442
REMARK  180  A    between atoms: _445  and  _447
REMARK  181  A    between atoms: _447  and  _448
REMARK  182  A    between atoms: _447  and  _450
REMARK  183  A    between atoms: _450  and  _451
REMARK  184  A    between atoms: _454  and  _456
REMARK  185  A    between atoms: _456  and  _457
REMARK  186  A    between atoms: _459  and  _461
REMARK  187  A    between atoms: _461  and  _462
REMARK  188  A    between atoms: _465  and  _467
REMARK  189  A    between atoms: _467  and  _468
REMARK  190  A    between atoms: _467  and  _470
REMARK  191  A    between atoms: _473  and  _475
REMARK  192  A    between atoms: _475  and  _476
REMARK  193  A    between atoms: _478  and  _480
REMARK  194  A    between atoms: _480  and  _481
REMARK  195  A    between atoms: _480  and  _483
REMARK  196  A    between atoms: _486  and  _488
REMARK  197  A    between atoms: _488  and  _489
REMARK  198  A    between atoms: _488  and  _491
REMARK  199  A    between atoms: _491  and  _492
REMARK  200  A    between atoms: _495  and  _497
REMARK  201  A    between atoms: _497  and  _498
REMARK  202  A    between atoms: _497  and  _500
REMARK  203  A    between atoms: _500  and  _501
REMARK  204  A    between atoms: _501  and  _502
REMARK  205  A    between atoms: _504  and  _506
REMARK  206  A    between atoms: _506  and  _507
REMARK  207  A    between atoms: _506  and  _509
REMARK  208  A    between atoms: _509  and  _510
REMARK  209  A    between atoms: _515  and  _516
REMARK  210  A    between atoms: _518  and  _520
REMARK  211  A    between atoms: _520  and  _521
REMARK  212  A    between atoms: _520  and  _523
REMARK  213  A    between atoms: _523  and  _524
REMARK  214  A    between atoms: _527  and  _529
REMARK  215  A    between atoms: _529  and  _530
REMARK  216  A    between atoms: _529  and  _532
REMARK  217  A    between atoms: _532  and  _533
REMARK  218  A    between atoms: _538  and  _540
REMARK  219  A    between atoms: _540  and  _541
REMARK  220  A    between atoms: _540  and  _543
REMARK  221  A    between atoms: _543  and  _544
REMARK  222  A    between atoms: _546  and  _548
REMARK  223  A    between atoms: _548  and  _549
REMARK  224  A    between atoms: _551  and  _553
REMARK  225  A    between atoms: _553  and  _554
REMARK  226  A    between atoms: _553  and  _556
REMARK  227  A    between atoms: _556  and  _557
REMARK  228  A    between atoms: _560  and  _562
REMARK  229  A    between atoms: _562  and  _563
REMARK  230  A    between atoms: _562  and  _565
REMARK  231  A    between atoms: _565  and  _566
REMARK  232  A    between atoms: _569  and  _571
REMARK  233  A    between atoms: _571  and  _572
REMARK  234  A    between atoms: _571  and  _574
REMARK  235  A    between atoms: _574  and  _575
REMARK  236  A    between atoms: _581  and  _583
REMARK  237  A    between atoms: _583  and  _584
REMARK  238  A    between atoms: _583  and  _586
REMARK  239  A    between atoms: _586  and  _587
REMARK  240  A    between atoms: _590  and  _592
REMARK  241  A    between atoms: _592  and  _593
REMARK  242  A    between atoms: _592  and  _595
REMARK  243  A    between atoms: _598  and  _600
REMARK  244  A    between atoms: _600  and  _601
REMARK  245  A    between atoms: _600  and  _603
REMARK  246  A    between atoms: _603  and  _604
REMARK  247  A    between atoms: _607  and  _609
REMARK  248  A    between atoms: _609  and  _610
REMARK  249  A    between atoms: _609  and  _612
REMARK  250  A    between atoms: _612  and  _613
REMARK  251  A    between atoms: _613  and  _614
REMARK  252  A    between atoms: _614  and  _615
REMARK  253  A    between atoms: _624  and  _626
REMARK  254  A    between atoms: _626  and  _627
REMARK  255  A    between atoms: _626  and  _629
REMARK  256  A    between atoms: _629  and  _630
REMARK                            x       y       z     vdW  Elec       q    Type
REMARK                         _______ _______ _______ _____ _____    ______ ____
ROOT
ATOM      1  O   HOH     1     -28.064  10.772  -3.296  0.00  0.00    +0.000 OA
ENDROOT
TORSDOF 0
REMARK  Name = ../refined-set-2016/3ies/3ies_pocket.pdb
REMARK  256 active torsions:
REMARK  status: ('A' for Active; 'I' for Inactive)
REMARK    1  A    between atoms: _1  and  _3
REMARK    2  A    between atoms: _3  and  _4
REMARK    3  A    between atoms: _3  and  _6
REMARK    4  A    between atoms: _6  and  _7
REMARK    5  A    between atoms: _7  and  _8
REMARK    6  A    between atoms: _10  and  _12
REMARK    7  A    between atoms: _12  and  _13
REMARK    8  A    between atoms: _12  and  _15
REMARK    9  A    between atoms: _15  and  _16
REMARK   10  A    between atoms: _21  and  _23
REMARK   11  A    between atoms: _23  and  _24
REMARK   12  A    between atoms: _23  and  _26
REMARK   13  A    between atoms: _26  and  _27
REMARK   14  A    between atoms: _29  and  _31
REMARK   15  A    between atoms: _31  and  _32
REMARK   16  A    between atoms: _31  and  _34
REMARK   17  A    between atoms: _37  and  _39
REMARK   18  A    between atoms: _39  and  _40
REMARK   19  A    between atoms: _39  and  _42
REMARK   20  A    between atoms: _42  and  _43
REMARK   21  A    between atoms: _43  and  _44
REMARK   22  A    between atoms: _44  and  _45
REMARK   23  A    between atoms: _54  and  _56
REMARK   24  A    between atoms: _56  and  _57
REMARK   25  A    between atoms: _56  and  _59
REMARK   26  A    between atoms: _59  and  _60
REMARK   27  A    between atoms: _65  and  _67
REMARK   28  A    between atoms: _67  and  _68
REMARK   29  A    between atoms: _71  and  _73
REMARK   30  A    between atoms: _73  and  _74
REMARK   31  A    between atoms: _73  and  _76
REMARK   32  A    between atoms: _76  and  _77
REMARK   33  A    between atoms: _83  and  _85
REMARK   34  A    between atoms: _85  and  _86
REMARK   35  A    between atoms: _88  and  _90
REMARK   36  A    between atoms: _90  and  _91
REMARK   37  A    between atoms: _90  and  _93
REMARK   38  A    between atoms: _93  and  _94
REMARK   39  A    between atoms: _99  and  _101
REMARK   40  A    between atoms: _101  and  _102
REMARK   41  A    between atoms: _101  and  _104
REMARK   42  A    between atoms: _104  and  _105
REMARK   43  A    between atoms: _110  and  _112
REMARK   44  A    between atoms: _112  and  _113
REMARK   45  A    between atoms: _115  and  _117
REMARK   46  A    between atoms: _117  and  _118
REMARK   47  A    between atoms: _117  and  _120
REMARK   48  A    between atoms: _120  and  _121
REMARK   49  A    between atoms: _127  and  _129
REMARK   50  A    between atoms: _129  and  _130
REMARK   51  A    between atoms: _132  and  _134
REMARK   52  A    between atoms: _134  and  _135
REMARK   53  A    between atoms: _134  and  _137
REMARK   54  A    between atoms: _137  and  _138
REMARK   55  A    between atoms: _138  and  _139
REMARK   56  A    between atoms: _141  and  _143
REMARK   57  A    between atoms: _143  and  _144
REMARK   58  A    between atoms: _143  and  _146
REMARK   59  A    between atoms: _146  and  _147
REMARK   60  A    between atoms: _153  and  _155
REMARK   61  A    between atoms: _155  and  _156
REMARK   62  A    between atoms: _155  and  _158
REMARK   63  A    between atoms: _158  and  _159
REMARK   64  A    between atoms: _162  and  _164
REMARK   65  A    between atoms: _164  and  _165
REMARK   66  A    between atoms: _164  and  _167
REMARK   67  A    between atoms: _167  and  _168
REMARK   68  A    between atoms: _171  and  _173
REMARK   69  A    between atoms: _173  and  _174
REMARK   70  A    between atoms: _173  and  _176
REMARK   71  A    between atoms: _176  and  _177
REMARK   72  A    between atoms: _182  and  _183
REMARK   73  A    between atoms: _185  and  _187
REMARK   74  A    between atoms: _187  and  _188
REMARK   75  A    between atoms: _187  and  _190
REMARK   76  A    between atoms: _190  and  _191
REMARK   77  A    between atoms: _193  and  _195
REMARK   78  A    between atoms: _195  and  _196
REMARK   79  A    between atoms: _199  and  _201
REMARK   80  A    between atoms: _201  and  _202
REMARK   81  A    between atoms: _201  and  _204
REMARK   82  A    between atoms: _204  and  _205
REMARK   83  A    between atoms: _208  and  _210
REMARK   84  A    between atoms: _210  and  _211
REMARK   85  A    between atoms: _210  and  _213
REMARK   86  A    between atoms: _213  and  _214
REMARK   87  A    between atoms: _217  and  _219
REMARK   88  A    between atoms: _219  and  _220
REMARK   89  A    between atoms: _219  and  _222
REMARK   90  A    between atoms: _226  and  _227
REMARK   91  A    between atoms: _232  and  _234
REMARK   92  A    between atoms: _234  and  _235
REMARK   93  A    between atoms: _234  and  _237
REMARK   94  A    between atoms: _237  and  _238
REMARK   95  A    between atoms: _238  and  _239
REMARK   96  A    between atoms: _242  and  _244
REMARK   97  A    between atoms: _244  and  _245
REMARK   98  A    between atoms: _244  and  _247
REMARK   99  A    between atoms: _247  and  _248
REMARK  100  A    between atoms: _251  and  _253
REMARK  101  A    between atoms: _253  and  _254
REMARK  102  A    between atoms: _257  and  _259
REMARK  103  A    between atoms: _259  and  _260
REMARK  104  A    between atoms: _259  and  _262
REMARK  105  A    between atoms: _262  and  _263
REMARK  106  A    between atoms: _265  and  _267
REMARK  107  A    between atoms: _267  and  _268
REMARK  108  A    between atoms: _270  and  _272
REMARK  109  A    between atoms: _272  and  _273
REMARK  110  A    between atoms: _275  and  _277
REMARK  111  A    between atoms: _277  and  _278
REMARK  112  A    between atoms: _282  and  _283
REMARK  113  A    between atoms: _288  and  _290
REMARK  114  A    between atoms: _290  and  _291
REMARK  115  A    between atoms: _290  and  _293
REMARK  116  A    between atoms: _293  and  _294
REMARK  117  A    between atoms: _297  and  _299
REMARK  118  A    between atoms: _299  and  _300
REMARK  119  A    between atoms: _299  and  _302
REMARK  120  A    between atoms: _302  and  _303
REMARK  121  A    between atoms: _305  and  _307
REMARK  122  A    between atoms: _307  and  _308
REMARK  123  A    between atoms: _307  and  _310
REMARK  124  A    between atoms: _310  and  _311
REMARK  125  A    between atoms: _311  and  _312
REMARK  126  A    between atoms: _312  and  _313
REMARK  127  A    between atoms: _322  and  _324
REMARK  128  A    between atoms: _324  and  _325
REMARK  129  A    between atoms: _324  and  _327
REMARK  130  A    between atoms: _327  and  _328
REMARK  131  A    between atoms: _328  and  _329
REMARK  132  A    between atoms: _334  and  _336
REMARK  133  A    between atoms: _336  and  _337
REMARK  134  A    between atoms: _339  and  _341
REMARK  135  A    between atoms: _341  and  _342
REMARK  136  A    between atoms: _341  and  _344
REMARK  137  A    between atoms: _344  and  _345
REMARK  138  A    between atoms: _350  and  _351
REMARK  139  A    between atoms: _353  and  _355
REMARK  140  A    between atoms: _355  and  _356
REMARK  141  A    between atoms: _358  and  _360
REMARK  142  A    between atoms: _360  and  _361
REMARK  143  A    between atoms: _360  and  _363
REMARK  144  A    between atoms: _363  and  _364
REMARK  145  A    between atoms: _367  and  _369
REMARK  146  A    between atoms: _369  and  _370
REMARK  147  A    between atoms: _369  and  _372
REMARK  148  A    between atoms: _372  and  _373
REMARK  149  A    between atoms: _376  and  _378
REMARK  150  A    between atoms: _378  and  _379
REMARK  151  A    between atoms: _378  and  _381
REMARK  152  A    between atoms: _381  and  _382
REMARK  153  A    between atoms: _382  and  _383
REMARK  154  A    between atoms: _386  and  _388
REMARK  155  A    between atoms: _388  and  _389
REMARK  156  A    between atoms: _388  and  _391
REMARK  157  A    between atoms: _391  and  _392
REMARK  158  A    between atoms: _395  and  _397
REMARK  159  A    between atoms: _397  and  _398
REMARK  160  A    between atoms: _397  and  _400
REMARK  161  A    between atoms: _400  and  _401
REMARK  162  A    between atoms: _404  and  _406
REMARK  163  A    between atoms: _406  and  _407
REMARK  164  A    between atoms: _406  and  _409
REMARK  165  A    between atoms: _409  and  _410
REMARK  166  A    between atoms: _412  and  _414
REMARK  167  A    between atoms: _414  and  _415
REMARK  168  A    between atoms: _418  and  _420
REMARK  169  A    between atoms: _420  and  _421
REMARK  170  A    between atoms: _420  and  _423
REMARK  171  A    between atoms: _423  and  _424
REMARK  172  A    between atoms: _427  and  _429
REMARK  173  A    between atoms: _429  and  _430
REMARK  174  A    between atoms: _429  and  _432
REMARK  175  A    between atoms: _432  and  _433
REMARK  176  A    between atoms: _436  and  _438
REMARK  177  A    between atoms: _438  and  _439
REMARK  178  A    between atoms: _438  and  _441
REMARK  179  A    between atoms: _441  and  _442
REMARK  180  A    between atoms: _445  and  _447
REMARK  181  A    between atoms: _447  and  _448
REMARK  182  A    between atoms: _447  and  _450
REMARK  183  A    between atoms: _450  and  _451
REMARK  184  A    between atoms: _454  and  _456
REMARK  185  A    between atoms: _456  and  _457
REMARK  186  A    between atoms: _459  and  _461
REMARK  187  A    between atoms: _461  and  _462
REMARK  188  A    between atoms: _465  and  _467
REMARK  189  A    between atoms: _467  and  _468
REMARK  190  A    between atoms: _467  and  _470
REMARK  191  A    between atoms: _473  and  _475
REMARK  192  A    between atoms: _475  and  _476
REMARK  193  A    between atoms: _478  and  _480
REMARK  194  A    between atoms: _480  and  _481
REMARK  195  A    between atoms: _480  and  _483
REMARK  196  A    between atoms: _486  and  _488
REMARK  197  A    between atoms: _488  and  _489
REMARK  198  A    between atoms: _488  and  _491
REMARK  199  A    between atoms: _491  and  _492
REMARK  200  A    between atoms: _495  and  _497
REMARK  201  A    between atoms: _497  and  _498
REMARK  202  A    between atoms: _497  and  _500
REMARK  203  A    between atoms: _500  and  _501
REMARK  204  A    between atoms: _501  and  _502
REMARK  205  A    between atoms: _504  and  _506
REMARK  206  A    between atoms: _506  and  _507
REMARK  207  A    between atoms: _506  and  _509
REMARK  208  A    between atoms: _509  and  _510
REMARK  209  A    between atoms: _515  and  _516
REMARK  210  A    between atoms: _518  and  _520
REMARK  211  A    between atoms: _520  and  _521
REMARK  212  A    between atoms: _520  and  _523
REMARK  213  A    between atoms: _523  and  _524
REMARK  214  A    between atoms: _527  and  _529
REMARK  215  A    between atoms: _529  and  _530
REMARK  216  A    between atoms: _529  and  _532
REMARK  217  A    between atoms: _532  and  _533
REMARK  218  A    between atoms: _538  and  _540
REMARK  219  A    between atoms: _540  and  _541
REMARK  220  A    between atoms: _540  and  _543
REMARK  221  A    between atoms: _543  and  _544
REMARK  222  A    between atoms: _546  and  _548
REMARK  223  A    between atoms: _548  and  _549
REMARK  224  A    between atoms: _551  and  _553
REMARK  225  A    between atoms: _553  and  _554
REMARK  226  A    between atoms: _553  and  _556
REMARK  227  A    between atoms: _556  and  _557
REMARK  228  A    between atoms: _560  and  _562
REMARK  229  A    between atoms: _562  and  _563
REMARK  230  A    between atoms: _562  and  _565
REMARK  231  A    between atoms: _565  and  _566
REMARK  232  A    between atoms: _569  and  _571
REMARK  233  A    between atoms: _571  and  _572
REMARK  234  A    between atoms: _571  and  _574
REMARK  235  A    between atoms: _574  and  _575
REMARK  236  A    between atoms: _581  and  _583
REMARK  237  A    between atoms: _583  and  _584
REMARK  238  A    between atoms: _583  and  _586
REMARK  239  A    between atoms: _586  and  _587
REMARK  240  A    between atoms: _590  and  _592
REMARK  241  A    between atoms: _592  and  _593
REMARK  242  A    between atoms: _592  and  _595
REMARK  243  A    between atoms: _598  and  _600
REMARK  244  A    between atoms: _600  and  _601
REMARK  245  A    between atoms: _600  and  _603
REMARK  246  A    between atoms: _603  and  _604
REMARK  247  A    between atoms: _607  and  _609
REMARK  248  A    between atoms: _609  and  _610
REMARK  249  A    between atoms: _609  and  _612
REMARK  250  A    between atoms: _612  and  _613
REMARK  251  A    between atoms: _613  and  _614
REMARK  252  A    between atoms: _614  and  _615
REMARK  253  A    between atoms: _624  and  _626
REMARK  254  A    between atoms: _626  and  _627
REMARK  255  A    between atoms: _626  and  _629
REMARK  256  A    between atoms: _629  and  _630
REMARK                            x       y       z     vdW  Elec       q    Type
REMARK                         _______ _______ _______ _____ _____    ______ ____
ROOT
ATOM      1  O   HOH     1     -27.146  -4.705  -6.560  0.00  0.00    +0.000 OA
ENDROOT
TORSDOF 0
REMARK  Name = ../refined-set-2016/3ies/3ies_pocket.pdb
REMARK  256 active torsions:
REMARK  status: ('A' for Active; 'I' for Inactive)
REMARK    1  A    between atoms: _1  and  _3
REMARK    2  A    between atoms: _3  and  _4
REMARK    3  A    between atoms: _3  and  _6
REMARK    4  A    between atoms: _6  and  _7
REMARK    5  A    between atoms: _7  and  _8
REMARK    6  A    between atoms: _10  and  _12
REMARK    7  A    between atoms: _12  and  _13
REMARK    8  A    between atoms: _12  and  _15
REMARK    9  A    between atoms: _15  and  _16
REMARK   10  A    between atoms: _21  and  _23
REMARK   11  A    between atoms: _23  and  _24
REMARK   12  A    between atoms: _23  and  _26
REMARK   13  A    between atoms: _26  and  _27
REMARK   14  A    between atoms: _29  and  _31
REMARK   15  A    between atoms: _31  and  _32
REMARK   16  A    between atoms: _31  and  _34
REMARK   17  A    between atoms: _37  and  _39
REMARK   18  A    between atoms: _39  and  _40
REMARK   19  A    between atoms: _39  and  _42
REMARK   20  A    between atoms: _42  and  _43
REMARK   21  A    between atoms: _43  and  _44
REMARK   22  A    between atoms: _44  and  _45
REMARK   23  A    between atoms: _54  and  _56
REMARK   24  A    between atoms: _56  and  _57
REMARK   25  A    between atoms: _56  and  _59
REMARK   26  A    between atoms: _59  and  _60
REMARK   27  A    between atoms: _65  and  _67
REMARK   28  A    between atoms: _67  and  _68
REMARK   29  A    between atoms: _71  and  _73
REMARK   30  A    between atoms: _73  and  _74
REMARK   31  A    between atoms: _73  and  _76
REMARK   32  A    between atoms: _76  and  _77
REMARK   33  A    between atoms: _83  and  _85
REMARK   34  A    between atoms: _85  and  _86
REMARK   35  A    between atoms: _88  and  _90
REMARK   36  A    between atoms: _90  and  _91
REMARK   37  A    between atoms: _90  and  _93
REMARK   38  A    between atoms: _93  and  _94
REMARK   39  A    between atoms: _99  and  _101
REMARK   40  A    between atoms: _101  and  _102
REMARK   41  A    between atoms: _101  and  _104
REMARK   42  A    between atoms: _104  and  _105
REMARK   43  A    between atoms: _110  and  _112
REMARK   44  A    between atoms: _112  and  _113
REMARK   45  A    between atoms: _115  and  _117
REMARK   46  A    between atoms: _117  and  _118
REMARK   47  A    between atoms: _117  and  _120
REMARK   48  A    between atoms: _120  and  _121
REMARK   49  A    between atoms: _127  and  _129
REMARK   50  A    between atoms: _129  and  _130
REMARK   51  A    between atoms: _132  and  _134
REMARK   52  A    between atoms: _134  and  _135
REMARK   53  A    between atoms: _134  and  _137
REMARK   54  A    between atoms: _137  and  _138
REMARK   55  A    between atoms: _138  and  _139
REMARK   56  A    between atoms: _141  and  _143
REMARK   57  A    between atoms: _143  and  _144
REMARK   58  A    between atoms: _143  and  _146
REMARK   59  A    between atoms: _146  and  _147
REMARK   60  A    between atoms: _153  and  _155
REMARK   61  A    between atoms: _155  and  _156
REMARK   62  A    between atoms: _155  and  _158
REMARK   63  A    between atoms: _158  and  _159
REMARK   64  A    between atoms: _162  and  _164
REMARK   65  A    between atoms: _164  and  _165
REMARK   66  A    between atoms: _164  and  _167
REMARK   67  A    between atoms: _167  and  _168
REMARK   68  A    between atoms: _171  and  _173
REMARK   69  A    between atoms: _173  and  _174
REMARK   70  A    between atoms: _173  and  _176
REMARK   71  A    between atoms: _176  and  _177
REMARK   72  A    between atoms: _182  and  _183
REMARK   73  A    between atoms: _185  and  _187
REMARK   74  A    between atoms: _187  and  _188
REMARK   75  A    between atoms: _187  and  _190
REMARK   76  A    between atoms: _190  and  _191
REMARK   77  A    between atoms: _193  and  _195
REMARK   78  A    between atoms: _195  and  _196
REMARK   79  A    between atoms: _199  and  _201
REMARK   80  A    between atoms: _201  and  _202
REMARK   81  A    between atoms: _201  and  _204
REMARK   82  A    between atoms: _204  and  _205
REMARK   83  A    between atoms: _208  and  _210
REMARK   84  A    between atoms: _210  and  _211
REMARK   85  A    between atoms: _210  and  _213
REMARK   86  A    between atoms: _213  and  _214
REMARK   87  A    between atoms: _217  and  _219
REMARK   88  A    between atoms: _219  and  _220
REMARK   89  A    between atoms: _219  and  _222
REMARK   90  A    between atoms: _226  and  _227
REMARK   91  A    between atoms: _232  and  _234
REMARK   92  A    between atoms: _234  and  _235
REMARK   93  A    between atoms: _234  and  _237
REMARK   94  A    between atoms: _237  and  _238
REMARK   95  A    between atoms: _238  and  _239
REMARK   96  A    between atoms: _242  and  _244
REMARK   97  A    between atoms: _244  and  _245
REMARK   98  A    between atoms: _244  and  _247
REMARK   99  A    between atoms: _247  and  _248
REMARK  100  A    between atoms: _251  and  _253
REMARK  101  A    between atoms: _253  and  _254
REMARK  102  A    between atoms: _257  and  _259
REMARK  103  A    between atoms: _259  and  _260
REMARK  104  A    between atoms: _259  and  _262
REMARK  105  A    between atoms: _262  and  _263
REMARK  106  A    between atoms: _265  and  _267
REMARK  107  A    between atoms: _267  and  _268
REMARK  108  A    between atoms: _270  and  _272
REMARK  109  A    between atoms: _272  and  _273
REMARK  110  A    between atoms: _275  and  _277
REMARK  111  A    between atoms: _277  and  _278
REMARK  112  A    between atoms: _282  and  _283
REMARK  113  A    between atoms: _288  and  _290
REMARK  114  A    between atoms: _290  and  _291
REMARK  115  A    between atoms: _290  and  _293
REMARK  116  A    between atoms: _293  and  _294
REMARK  117  A    between atoms: _297  and  _299
REMARK  118  A    between atoms: _299  and  _300
REMARK  119  A    between atoms: _299  and  _302
REMARK  120  A    between atoms: _302  and  _303
REMARK  121  A    between atoms: _305  and  _307
REMARK  122  A    between atoms: _307  and  _308
REMARK  123  A    between atoms: _307  and  _310
REMARK  124  A    between atoms: _310  and  _311
REMARK  125  A    between atoms: _311  and  _312
REMARK  126  A    between atoms: _312  and  _313
REMARK  127  A    between atoms: _322  and  _324
REMARK  128  A    between atoms: _324  and  _325
REMARK  129  A    between atoms: _324  and  _327
REMARK  130  A    between atoms: _327  and  _328
REMARK  131  A    between atoms: _328  and  _329
REMARK  132  A    between atoms: _334  and  _336
REMARK  133  A    between atoms: _336  and  _337
REMARK  134  A    between atoms: _339  and  _341
REMARK  135  A    between atoms: _341  and  _342
REMARK  136  A    between atoms: _341  and  _344
REMARK  137  A    between atoms: _344  and  _345
REMARK  138  A    between atoms: _350  and  _351
REMARK  139  A    between atoms: _353  and  _355
REMARK  140  A    between atoms: _355  and  _356
REMARK  141  A    between atoms: _358  and  _360
REMARK  142  A    between atoms: _360  and  _361
REMARK  143  A    between atoms: _360  and  _363
REMARK  144  A    between atoms: _363  and  _364
REMARK  145  A    between atoms: _367  and  _369
REMARK  146  A    between atoms: _369  and  _370
REMARK  147  A    between atoms: _369  and  _372
REMARK  148  A    between atoms: _372  and  _373
REMARK  149  A    between atoms: _376  and  _378
REMARK  150  A    between atoms: _378  and  _379
REMARK  151  A    between atoms: _378  and  _381
REMARK  152  A    between atoms: _381  and  _382
REMARK  153  A    between atoms: _382  and  _383
REMARK  154  A    between atoms: _386  and  _388
REMARK  155  A    between atoms: _388  and  _389
REMARK  156  A    between atoms: _388  and  _391
REMARK  157  A    between atoms: _391  and  _392
REMARK  158  A    between atoms: _395  and  _397
REMARK  159  A    between atoms: _397  and  _398
REMARK  160  A    between atoms: _397  and  _400
REMARK  161  A    between atoms: _400  and  _401
REMARK  162  A    between atoms: _404  and  _406
REMARK  163  A    between atoms: _406  and  _407
REMARK  164  A    between atoms: _406  and  _409
REMARK  165  A    between atoms: _409  and  _410
REMARK  166  A    between atoms: _412  and  _414
REMARK  167  A    between atoms: _414  and  _415
REMARK  168  A    between atoms: _418  and  _420
REMARK  169  A    between atoms: _420  and  _421
REMARK  170  A    between atoms: _420  and  _423
REMARK  171  A    between atoms: _423  and  _424
REMARK  172  A    between atoms: _427  and  _429
REMARK  173  A    between atoms: _429  and  _430
REMARK  174  A    between atoms: _429  and  _432
REMARK  175  A    between atoms: _432  and  _433
REMARK  176  A    between atoms: _436  and  _438
REMARK  177  A    between atoms: _438  and  _439
REMARK  178  A    between atoms: _438  and  _441
REMARK  179  A    between atoms: _441  and  _442
REMARK  180  A    between atoms: _445  and  _447
REMARK  181  A    between atoms: _447  and  _448
REMARK  182  A    between atoms: _447  and  _450
REMARK  183  A    between atoms: _450  and  _451
REMARK  184  A    between atoms: _454  and  _456
REMARK  185  A    between atoms: _456  and  _457
REMARK  186  A    between atoms: _459  and  _461
REMARK  187  A    between atoms: _461  and  _462
REMARK  188  A    between atoms: _465  and  _467
REMARK  189  A    between atoms: _467  and  _468
REMARK  190  A    between atoms: _467  and  _470
REMARK  191  A    between atoms: _473  and  _475
REMARK  192  A    between atoms: _475  and  _476
REMARK  193  A    between atoms: _478  and  _480
REMARK  194  A    between atoms: _480  and  _481
REMARK  195  A    between atoms: _480  and  _483
REMARK  196  A    between atoms: _486  and  _488
REMARK  197  A    between atoms: _488  and  _489
REMARK  198  A    between atoms: _488  and  _491
REMARK  199  A    between atoms: _491  and  _492
REMARK  200  A    between atoms: _495  and  _497
REMARK  201  A    between atoms: _497  and  _498
REMARK  202  A    between atoms: _497  and  _500
REMARK  203  A    between atoms: _500  and  _501
REMARK  204  A    between atoms: _501  and  _502
REMARK  205  A    between atoms: _504  and  _506
REMARK  206  A    between atoms: _506  and  _507
REMARK  207  A    between atoms: _506  and  _509
REMARK  208  A    between atoms: _509  and  _510
REMARK  209  A    between atoms: _515  and  _516
REMARK  210  A    between atoms: _518  and  _520
REMARK  211  A    between atoms: _520  and  _521
REMARK  212  A    between atoms: _520  and  _523
REMARK  213  A    between atoms: _523  and  _524
REMARK  214  A    between atoms: _527  and  _529
REMARK  215  A    between atoms: _529  and  _530
REMARK  216  A    between atoms: _529  and  _532
REMARK  217  A    between atoms: _532  and  _533
REMARK  218  A    between atoms: _538  and  _540
REMARK  219  A    between atoms: _540  and  _541
REMARK  220  A    between atoms: _540  and  _543
REMARK  221  A    between atoms: _543  and  _544
REMARK  222  A    between atoms: _546  and  _548
REMARK  223  A    between atoms: _548  and  _549
REMARK  224  A    between atoms: _551  and  _553
REMARK  225  A    between atoms: _553  and  _554
REMARK  226  A    between atoms: _553  and  _556
REMARK  227  A    between atoms: _556  and  _557
REMARK  228  A    between atoms: _560  and  _562
REMARK  229  A    between atoms: _562  and  _563
REMARK  230  A    between atoms: _562  and  _565
REMARK  231  A    between atoms: _565  and  _566
REMARK  232  A    between atoms: _569  and  _571
REMARK  233  A    between atoms: _571  and  _572
REMARK  234  A    between atoms: _571  and  _574
REMARK  235  A    between atoms: _574  and  _575
REMARK  236  A    between atoms: _581  and  _583
REMARK  237  A    between atoms: _583  and  _584
REMARK  238  A    between atoms: _583  and  _586
REMARK  239  A    between atoms: _586  and  _587
REMARK  240  A    between atoms: _590  and  _592
REMARK  241  A    between atoms: _592  and  _593
REMARK  242  A    between atoms: _592  and  _595
REMARK  243  A    between atoms: _598  and  _600
REMARK  244  A    between atoms: _600  and  _601
REMARK  245  A    between atoms: _600  and  _603
REMARK  246  A    between atoms: _603  and  _604
REMARK  247  A    between atoms: _607  and  _609
REMARK  248  A    between atoms: _609  and  _610
REMARK  249  A    between atoms: _609  and  _612
REMARK  250  A    between atoms: _612  and  _613
REMARK  251  A    between atoms: _613  and  _614
REMARK  252  A    between atoms: _614  and  _615
REMARK  253  A    between atoms: _624  and  _626
REMARK  254  A    between atoms: _626  and  _627
REMARK  255  A    between atoms: _626  and  _629
REMARK  256  A    between atoms: _629  and  _630
REMARK                            x       y       z     vdW  Elec       q    Type
REMARK                         _______ _______ _______ _____ _____    ______ ____
ROOT
ATOM      1  O   HOH     1     -24.158  13.532  -1.834  0.00  0.00    +0.000 OA
ENDROOT
TORSDOF 0
REMARK  Name = ../refined-set-2016/3ies/3ies_pocket.pdb
REMARK  256 active torsions:
REMARK  status: ('A' for Active; 'I' for Inactive)
REMARK    1  A    between atoms: _1  and  _3
REMARK    2  A    between atoms: _3  and  _4
REMARK    3  A    between atoms: _3  and  _6
REMARK    4  A    between atoms: _6  and  _7
REMARK    5  A    between atoms: _7  and  _8
REMARK    6  A    between atoms: _10  and  _12
REMARK    7  A    between atoms: _12  and  _13
REMARK    8  A    between atoms: _12  and  _15
REMARK    9  A    between atoms: _15  and  _16
REMARK   10  A    between atoms: _21  and  _23
REMARK   11  A    between atoms: _23  and  _24
REMARK   12  A    between atoms: _23  and  _26
REMARK   13  A    between atoms: _26  and  _27
REMARK   14  A    between atoms: _29  and  _31
REMARK   15  A    between atoms: _31  and  _32
REMARK   16  A    between atoms: _31  and  _34
REMARK   17  A    between atoms: _37  and  _39
REMARK   18  A    between atoms: _39  and  _40
REMARK   19  A    between atoms: _39  and  _42
REMARK   20  A    between atoms: _42  and  _43
REMARK   21  A    between atoms: _43  and  _44
REMARK   22  A    between atoms: _44  and  _45
REMARK   23  A    between atoms: _54  and  _56
REMARK   24  A    between atoms: _56  and  _57
REMARK   25  A    between atoms: _56  and  _59
REMARK   26  A    between atoms: _59  and  _60
REMARK   27  A    between atoms: _65  and  _67
REMARK   28  A    between atoms: _67  and  _68
REMARK   29  A    between atoms: _71  and  _73
REMARK   30  A    between atoms: _73  and  _74
REMARK   31  A    between atoms: _73  and  _76
REMARK   32  A    between atoms: _76  and  _77
REMARK   33  A    between atoms: _83  and  _85
REMARK   34  A    between atoms: _85  and  _86
REMARK   35  A    between atoms: _88  and  _90
REMARK   36  A    between atoms: _90  and  _91
REMARK   37  A    between atoms: _90  and  _93
REMARK   38  A    between atoms: _93  and  _94
REMARK   39  A    between atoms: _99  and  _101
REMARK   40  A    between atoms: _101  and  _102
REMARK   41  A    between atoms: _101  and  _104
REMARK   42  A    between atoms: _104  and  _105
REMARK   43  A    between atoms: _110  and  _112
REMARK   44  A    between atoms: _112  and  _113
REMARK   45  A    between atoms: _115  and  _117
REMARK   46  A    between atoms: _117  and  _118
REMARK   47  A    between atoms: _117  and  _120
REMARK   48  A    between atoms: _120  and  _121
REMARK   49  A    between atoms: _127  and  _129
REMARK   50  A    between atoms: _129  and  _130
REMARK   51  A    between atoms: _132  and  _134
REMARK   52  A    between atoms: _134  and  _135
REMARK   53  A    between atoms: _134  and  _137
REMARK   54  A    between atoms: _137  and  _138
REMARK   55  A    between atoms: _138  and  _139
REMARK   56  A    between atoms: _141  and  _143
REMARK   57  A    between atoms: _143  and  _144
REMARK   58  A    between atoms: _143  and  _146
REMARK   59  A    between atoms: _146  and  _147
REMARK   60  A    between atoms: _153  and  _155
REMARK   61  A    between atoms: _155  and  _156
REMARK   62  A    between atoms: _155  and  _158
REMARK   63  A    between atoms: _158  and  _159
REMARK   64  A    between atoms: _162  and  _164
REMARK   65  A    between atoms: _164  and  _165
REMARK   66  A    between atoms: _164  and  _167
REMARK   67  A    between atoms: _167  and  _168
REMARK   68  A    between atoms: _171  and  _173
REMARK   69  A    between atoms: _173  and  _174
REMARK   70  A    between atoms: _173  and  _176
REMARK   71  A    between atoms: _176  and  _177
REMARK   72  A    between atoms: _182  and  _183
REMARK   73  A    between atoms: _185  and  _187
REMARK   74  A    between atoms: _187  and  _188
REMARK   75  A    between atoms: _187  and  _190
REMARK   76  A    between atoms: _190  and  _191
REMARK   77  A    between atoms: _193  and  _195
REMARK   78  A    between atoms: _195  and  _196
REMARK   79  A    between atoms: _199  and  _201
REMARK   80  A    between atoms: _201  and  _202
REMARK   81  A    between atoms: _201  and  _204
REMARK   82  A    between atoms: _204  and  _205
REMARK   83  A    between atoms: _208  and  _210
REMARK   84  A    between atoms: _210  and  _211
REMARK   85  A    between atoms: _210  and  _213
REMARK   86  A    between atoms: _213  and  _214
REMARK   87  A    between atoms: _217  and  _219
REMARK   88  A    between atoms: _219  and  _220
REMARK   89  A    between atoms: _219  and  _222
REMARK   90  A    between atoms: _226  and  _227
REMARK   91  A    between atoms: _232  and  _234
REMARK   92  A    between atoms: _234  and  _235
REMARK   93  A    between atoms: _234  and  _237
REMARK   94  A    between atoms: _237  and  _238
REMARK   95  A    between atoms: _238  and  _239
REMARK   96  A    between atoms: _242  and  _244
REMARK   97  A    between atoms: _244  and  _245
REMARK   98  A    between atoms: _244  and  _247
REMARK   99  A    between atoms: _247  and  _248
REMARK  100  A    between atoms: _251  and  _253
REMARK  101  A    between atoms: _253  and  _254
REMARK  102  A    between atoms: _257  and  _259
REMARK  103  A    between atoms: _259  and  _260
REMARK  104  A    between atoms: _259  and  _262
REMARK  105  A    between atoms: _262  and  _263
REMARK  106  A    between atoms: _265  and  _267
REMARK  107  A    between atoms: _267  and  _268
REMARK  108  A    between atoms: _270  and  _272
REMARK  109  A    between atoms: _272  and  _273
REMARK  110  A    between atoms: _275  and  _277
REMARK  111  A    between atoms: _277  and  _278
REMARK  112  A    between atoms: _282  and  _283
REMARK  113  A    between atoms: _288  and  _290
REMARK  114  A    between atoms: _290  and  _291
REMARK  115  A    between atoms: _290  and  _293
REMARK  116  A    between atoms: _293  and  _294
REMARK  117  A    between atoms: _297  and  _299
REMARK  118  A    between atoms: _299  and  _300
REMARK  119  A    between atoms: _299  and  _302
REMARK  120  A    between atoms: _302  and  _303
REMARK  121  A    between atoms: _305  and  _307
REMARK  122  A    between atoms: _307  and  _308
REMARK  123  A    between atoms: _307  and  _310
REMARK  124  A    between atoms: _310  and  _311
REMARK  125  A    between atoms: _311  and  _312
REMARK  126  A    between atoms: _312  and  _313
REMARK  127  A    between atoms: _322  and  _324
REMARK  128  A    between atoms: _324  and  _325
REMARK  129  A    between atoms: _324  and  _327
REMARK  130  A    between atoms: _327  and  _328
REMARK  131  A    between atoms: _328  and  _329
REMARK  132  A    between atoms: _334  and  _336
REMARK  133  A    between atoms: _336  and  _337
REMARK  134  A    between atoms: _339  and  _341
REMARK  135  A    between atoms: _341  and  _342
REMARK  136  A    between atoms: _341  and  _344
REMARK  137  A    between atoms: _344  and  _345
REMARK  138  A    between atoms: _350  and  _351
REMARK  139  A    between atoms: _353  and  _355
REMARK  140  A    between atoms: _355  and  _356
REMARK  141  A    between atoms: _358  and  _360
REMARK  142  A    between atoms: _360  and  _361
REMARK  143  A    between atoms: _360  and  _363
REMARK  144  A    between atoms: _363  and  _364
REMARK  145  A    between atoms: _367  and  _369
REMARK  146  A    between atoms: _369  and  _370
REMARK  147  A    between atoms: _369  and  _372
REMARK  148  A    between atoms: _372  and  _373
REMARK  149  A    between atoms: _376  and  _378
REMARK  150  A    between atoms: _378  and  _379
REMARK  151  A    between atoms: _378  and  _381
REMARK  152  A    between atoms: _381  and  _382
REMARK  153  A    between atoms: _382  and  _383
REMARK  154  A    between atoms: _386  and  _388
REMARK  155  A    between atoms: _388  and  _389
REMARK  156  A    between atoms: _388  and  _391
REMARK  157  A    between atoms: _391  and  _392
REMARK  158  A    between atoms: _395  and  _397
REMARK  159  A    between atoms: _397  and  _398
REMARK  160  A    between atoms: _397  and  _400
REMARK  161  A    between atoms: _400  and  _401
REMARK  162  A    between atoms: _404  and  _406
REMARK  163  A    between atoms: _406  and  _407
REMARK  164  A    between atoms: _406  and  _409
REMARK  165  A    between atoms: _409  and  _410
REMARK  166  A    between atoms: _412  and  _414
REMARK  167  A    between atoms: _414  and  _415
REMARK  168  A    between atoms: _418  and  _420
REMARK  169  A    between atoms: _420  and  _421
REMARK  170  A    between atoms: _420  and  _423
REMARK  171  A    between atoms: _423  and  _424
REMARK  172  A    between atoms: _427  and  _429
REMARK  173  A    between atoms: _429  and  _430
REMARK  174  A    between atoms: _429  and  _432
REMARK  175  A    between atoms: _432  and  _433
REMARK  176  A    between atoms: _436  and  _438
REMARK  177  A    between atoms: _438  and  _439
REMARK  178  A    between atoms: _438  and  _441
REMARK  179  A    between atoms: _441  and  _442
REMARK  180  A    between atoms: _445  and  _447
REMARK  181  A    between atoms: _447  and  _448
REMARK  182  A    between atoms: _447  and  _450
REMARK  183  A    between atoms: _450  and  _451
REMARK  184  A    between atoms: _454  and  _456
REMARK  185  A    between atoms: _456  and  _457
REMARK  186  A    between atoms: _459  and  _461
REMARK  187  A    between atoms: _461  and  _462
REMARK  188  A    between atoms: _465  and  _467
REMARK  189  A    between atoms: _467  and  _468
REMARK  190  A    between atoms: _467  and  _470
REMARK  191  A    between atoms: _473  and  _475
REMARK  192  A    between atoms: _475  and  _476
REMARK  193  A    between atoms: _478  and  _480
REMARK  194  A    between atoms: _480  and  _481
REMARK  195  A    between atoms: _480  and  _483
REMARK  196  A    between atoms: _486  and  _488
REMARK  197  A    between atoms: _488  and  _489
REMARK  198  A    between atoms: _488  and  _491
REMARK  199  A    between atoms: _491  and  _492
REMARK  200  A    between atoms: _495  and  _497
REMARK  201  A    between atoms: _497  and  _498
REMARK  202  A    between atoms: _497  and  _500
REMARK  203  A    between atoms: _500  and  _501
REMARK  204  A    between atoms: _501  and  _502
REMARK  205  A    between atoms: _504  and  _506
REMARK  206  A    between atoms: _506  and  _507
REMARK  207  A    between atoms: _506  and  _509
REMARK  208  A    between atoms: _509  and  _510
REMARK  209  A    between atoms: _515  and  _516
REMARK  210  A    between atoms: _518  and  _520
REMARK  211  A    between atoms: _520  and  _521
REMARK  212  A    between atoms: _520  and  _523
REMARK  213  A    between atoms: _523  and  _524
REMARK  214  A    between atoms: _527  and  _529
REMARK  215  A    between atoms: _529  and  _530
REMARK  216  A    between atoms: _529  and  _532
REMARK  217  A    between atoms: _532  and  _533
REMARK  218  A    between atoms: _538  and  _540
REMARK  219  A    between atoms: _540  and  _541
REMARK  220  A    between atoms: _540  and  _543
REMARK  221  A    between atoms: _543  and  _544
REMARK  222  A    between atoms: _546  and  _548
REMARK  223  A    between atoms: _548  and  _549
REMARK  224  A    between atoms: _551  and  _553
REMARK  225  A    between atoms: _553  and  _554
REMARK  226  A    between atoms: _553  and  _556
REMARK  227  A    between atoms: _556  and  _557
REMARK  228  A    between atoms: _560  and  _562
REMARK  229  A    between atoms: _562  and  _563
REMARK  230  A    between atoms: _562  and  _565
REMARK  231  A    between atoms: _565  and  _566
REMARK  232  A    between atoms: _569  and  _571
REMARK  233  A    between atoms: _571  and  _572
REMARK  234  A    between atoms: _571  and  _574
REMARK  235  A    between atoms: _574  and  _575
REMARK  236  A    between atoms: _581  and  _583
REMARK  237  A    between atoms: _583  and  _584
REMARK  238  A    between atoms: _583  and  _586
REMARK  239  A    between atoms: _586  and  _587
REMARK  240  A    between atoms: _590  and  _592
REMARK  241  A    between atoms: _592  and  _593
REMARK  242  A    between atoms: _592  and  _595
REMARK  243  A    between atoms: _598  and  _600
REMARK  244  A    between atoms: _600  and  _601
REMARK  245  A    between atoms: _600  and  _603
REMARK  246  A    between atoms: _603  and  _604
REMARK  247  A    between atoms: _607  and  _609
REMARK  248  A    between atoms: _609  and  _610
REMARK  249  A    between atoms: _609  and  _612
REMARK  250  A    between atoms: _612  and  _613
REMARK  251  A    between atoms: _613  and  _614
REMARK  252  A    between atoms: _614  and  _615
REMARK  253  A    between atoms: _624  and  _626
REMARK  254  A    between atoms: _626  and  _627
REMARK  255  A    between atoms: _626  and  _629
REMARK  256  A    between atoms: _629  and  _630
REMARK                            x       y       z     vdW  Elec       q    Type
REMARK                         _______ _______ _______ _____ _____    ______ ____
ROOT
ATOM      1  O   HOH     1     -32.766  14.471  -6.614  0.00  0.00    +0.000 OA
ENDROOT
TORSDOF 0
REMARK  Name = ../refined-set-2016/3ies/3ies_pocket.pdb
REMARK  256 active torsions:
REMARK  status: ('A' for Active; 'I' for Inactive)
REMARK    1  A    between atoms: _1  and  _3
REMARK    2  A    between atoms: _3  and  _4
REMARK    3  A    between atoms: _3  and  _6
REMARK    4  A    between atoms: _6  and  _7
REMARK    5  A    between atoms: _7  and  _8
REMARK    6  A    between atoms: _10  and  _12
REMARK    7  A    between atoms: _12  and  _13
REMARK    8  A    between atoms: _12  and  _15
REMARK    9  A    between atoms: _15  and  _16
REMARK   10  A    between atoms: _21  and  _23
REMARK   11  A    between atoms: _23  and  _24
REMARK   12  A    between atoms: _23  and  _26
REMARK   13  A    between atoms: _26  and  _27
REMARK   14  A    between atoms: _29  and  _31
REMARK   15  A    between atoms: _31  and  _32
REMARK   16  A    between atoms: _31  and  _34
REMARK   17  A    between atoms: _37  and  _39
REMARK   18  A    between atoms: _39  and  _40
REMARK   19  A    between atoms: _39  and  _42
REMARK   20  A    between atoms: _42  and  _43
REMARK   21  A    between atoms: _43  and  _44
REMARK   22  A    between atoms: _44  and  _45
REMARK   23  A    between atoms: _54  and  _56
REMARK   24  A    between atoms: _56  and  _57
REMARK   25  A    between atoms: _56  and  _59
REMARK   26  A    between atoms: _59  and  _60
REMARK   27  A    between atoms: _65  and  _67
REMARK   28  A    between atoms: _67  and  _68
REMARK   29  A    between atoms: _71  and  _73
REMARK   30  A    between atoms: _73  and  _74
REMARK   31  A    between atoms: _73  and  _76
REMARK   32  A    between atoms: _76  and  _77
REMARK   33  A    between atoms: _83  and  _85
REMARK   34  A    between atoms: _85  and  _86
REMARK   35  A    between atoms: _88  and  _90
REMARK   36  A    between atoms: _90  and  _91
REMARK   37  A    between atoms: _90  and  _93
REMARK   38  A    between atoms: _93  and  _94
REMARK   39  A    between atoms: _99  and  _101
REMARK   40  A    between atoms: _101  and  _102
REMARK   41  A    between atoms: _101  and  _104
REMARK   42  A    between atoms: _104  and  _105
REMARK   43  A    between atoms: _110  and  _112
REMARK   44  A    between atoms: _112  and  _113
REMARK   45  A    between atoms: _115  and  _117
REMARK   46  A    between atoms: _117  and  _118
REMARK   47  A    between atoms: _117  and  _120
REMARK   48  A    between atoms: _120  and  _121
REMARK   49  A    between atoms: _127  and  _129
REMARK   50  A    between atoms: _129  and  _130
REMARK   51  A    between atoms: _132  and  _134
REMARK   52  A    between atoms: _134  and  _135
REMARK   53  A    between atoms: _134  and  _137
REMARK   54  A    between atoms: _137  and  _138
REMARK   55  A    between atoms: _138  and  _139
REMARK   56  A    between atoms: _141  and  _143
REMARK   57  A    between atoms: _143  and  _144
REMARK   58  A    between atoms: _143  and  _146
REMARK   59  A    between atoms: _146  and  _147
REMARK   60  A    between atoms: _153  and  _155
REMARK   61  A    between atoms: _155  and  _156
REMARK   62  A    between atoms: _155  and  _158
REMARK   63  A    between atoms: _158  and  _159
REMARK   64  A    between atoms: _162  and  _164
REMARK   65  A    between atoms: _164  and  _165
REMARK   66  A    between atoms: _164  and  _167
REMARK   67  A    between atoms: _167  and  _168
REMARK   68  A    between atoms: _171  and  _173
REMARK   69  A    between atoms: _173  and  _174
REMARK   70  A    between atoms: _173  and  _176
REMARK   71  A    between atoms: _176  and  _177
REMARK   72  A    between atoms: _182  and  _183
REMARK   73  A    between atoms: _185  and  _187
REMARK   74  A    between atoms: _187  and  _188
REMARK   75  A    between atoms: _187  and  _190
REMARK   76  A    between atoms: _190  and  _191
REMARK   77  A    between atoms: _193  and  _195
REMARK   78  A    between atoms: _195  and  _196
REMARK   79  A    between atoms: _199  and  _201
REMARK   80  A    between atoms: _201  and  _202
REMARK   81  A    between atoms: _201  and  _204
REMARK   82  A    between atoms: _204  and  _205
REMARK   83  A    between atoms: _208  and  _210
REMARK   84  A    between atoms: _210  and  _211
REMARK   85  A    between atoms: _210  and  _213
REMARK   86  A    between atoms: _213  and  _214
REMARK   87  A    between atoms: _217  and  _219
REMARK   88  A    between atoms: _219  and  _220
REMARK   89  A    between atoms: _219  and  _222
REMARK   90  A    between atoms: _226  and  _227
REMARK   91  A    between atoms: _232  and  _234
REMARK   92  A    between atoms: _234  and  _235
REMARK   93  A    between atoms: _234  and  _237
REMARK   94  A    between atoms: _237  and  _238
REMARK   95  A    between atoms: _238  and  _239
REMARK   96  A    between atoms: _242  and  _244
REMARK   97  A    between atoms: _244  and  _245
REMARK   98  A    between atoms: _244  and  _247
REMARK   99  A    between atoms: _247  and  _248
REMARK  100  A    between atoms: _251  and  _253
REMARK  101  A    between atoms: _253  and  _254
REMARK  102  A    between atoms: _257  and  _259
REMARK  103  A    between atoms: _259  and  _260
REMARK  104  A    between atoms: _259  and  _262
REMARK  105  A    between atoms: _262  and  _263
REMARK  106  A    between atoms: _265  and  _267
REMARK  107  A    between atoms: _267  and  _268
REMARK  108  A    between atoms: _270  and  _272
REMARK  109  A    between atoms: _272  and  _273
REMARK  110  A    between atoms: _275  and  _277
REMARK  111  A    between atoms: _277  and  _278
REMARK  112  A    between atoms: _282  and  _283
REMARK  113  A    between atoms: _288  and  _290
REMARK  114  A    between atoms: _290  and  _291
REMARK  115  A    between atoms: _290  and  _293
REMARK  116  A    between atoms: _293  and  _294
REMARK  117  A    between atoms: _297  and  _299
REMARK  118  A    between atoms: _299  and  _300
REMARK  119  A    between atoms: _299  and  _302
REMARK  120  A    between atoms: _302  and  _303
REMARK  121  A    between atoms: _305  and  _307
REMARK  122  A    between atoms: _307  and  _308
REMARK  123  A    between atoms: _307  and  _310
REMARK  124  A    between atoms: _310  and  _311
REMARK  125  A    between atoms: _311  and  _312
REMARK  126  A    between atoms: _312  and  _313
REMARK  127  A    between atoms: _322  and  _324
REMARK  128  A    between atoms: _324  and  _325
REMARK  129  A    between atoms: _324  and  _327
REMARK  130  A    between atoms: _327  and  _328
REMARK  131  A    between atoms: _328  and  _329
REMARK  132  A    between atoms: _334  and  _336
REMARK  133  A    between atoms: _336  and  _337
REMARK  134  A    between atoms: _339  and  _341
REMARK  135  A    between atoms: _341  and  _342
REMARK  136  A    between atoms: _341  and  _344
REMARK  137  A    between atoms: _344  and  _345
REMARK  138  A    between atoms: _350  and  _351
REMARK  139  A    between atoms: _353  and  _355
REMARK  140  A    between atoms: _355  and  _356
REMARK  141  A    between atoms: _358  and  _360
REMARK  142  A    between atoms: _360  and  _361
REMARK  143  A    between atoms: _360  and  _363
REMARK  144  A    between atoms: _363  and  _364
REMARK  145  A    between atoms: _367  and  _369
REMARK  146  A    between atoms: _369  and  _370
REMARK  147  A    between atoms: _369  and  _372
REMARK  148  A    between atoms: _372  and  _373
REMARK  149  A    between atoms: _376  and  _378
REMARK  150  A    between atoms: _378  and  _379
REMARK  151  A    between atoms: _378  and  _381
REMARK  152  A    between atoms: _381  and  _382
REMARK  153  A    between atoms: _382  and  _383
REMARK  154  A    between atoms: _386  and  _388
REMARK  155  A    between atoms: _388  and  _389
REMARK  156  A    between atoms: _388  and  _391
REMARK  157  A    between atoms: _391  and  _392
REMARK  158  A    between atoms: _395  and  _397
REMARK  159  A    between atoms: _397  and  _398
REMARK  160  A    between atoms: _397  and  _400
REMARK  161  A    between atoms: _400  and  _401
REMARK  162  A    between atoms: _404  and  _406
REMARK  163  A    between atoms: _406  and  _407
REMARK  164  A    between atoms: _406  and  _409
REMARK  165  A    between atoms: _409  and  _410
REMARK  166  A    between atoms: _412  and  _414
REMARK  167  A    between atoms: _414  and  _415
REMARK  168  A    between atoms: _418  and  _420
REMARK  169  A    between atoms: _420  and  _421
REMARK  170  A    between atoms: _420  and  _423
REMARK  171  A    between atoms: _423  and  _424
REMARK  172  A    between atoms: _427  and  _429
REMARK  173  A    between atoms: _429  and  _430
REMARK  174  A    between atoms: _429  and  _432
REMARK  175  A    between atoms: _432  and  _433
REMARK  176  A    between atoms: _436  and  _438
REMARK  177  A    between atoms: _438  and  _439
REMARK  178  A    between atoms: _438  and  _441
REMARK  179  A    between atoms: _441  and  _442
REMARK  180  A    between atoms: _445  and  _447
REMARK  181  A    between atoms: _447  and  _448
REMARK  182  A    between atoms: _447  and  _450
REMARK  183  A    between atoms: _450  and  _451
REMARK  184  A    between atoms: _454  and  _456
REMARK  185  A    between atoms: _456  and  _457
REMARK  186  A    between atoms: _459  and  _461
REMARK  187  A    between atoms: _461  and  _462
REMARK  188  A    between atoms: _465  and  _467
REMARK  189  A    between atoms: _467  and  _468
REMARK  190  A    between atoms: _467  and  _470
REMARK  191  A    between atoms: _473  and  _475
REMARK  192  A    between atoms: _475  and  _476
REMARK  193  A    between atoms: _478  and  _480
REMARK  194  A    between atoms: _480  and  _481
REMARK  195  A    between atoms: _480  and  _483
REMARK  196  A    between atoms: _486  and  _488
REMARK  197  A    between atoms: _488  and  _489
REMARK  198  A    between atoms: _488  and  _491
REMARK  199  A    between atoms: _491  and  _492
REMARK  200  A    between atoms: _495  and  _497
REMARK  201  A    between atoms: _497  and  _498
REMARK  202  A    between atoms: _497  and  _500
REMARK  203  A    between atoms: _500  and  _501
REMARK  204  A    between atoms: _501  and  _502
REMARK  205  A    between atoms: _504  and  _506
REMARK  206  A    between atoms: _506  and  _507
REMARK  207  A    between atoms: _506  and  _509
REMARK  208  A    between atoms: _509  and  _510
REMARK  209  A    between atoms: _515  and  _516
REMARK  210  A    between atoms: _518  and  _520
REMARK  211  A    between atoms: _520  and  _521
REMARK  212  A    between atoms: _520  and  _523
REMARK  213  A    between atoms: _523  and  _524
REMARK  214  A    between atoms: _527  and  _529
REMARK  215  A    between atoms: _529  and  _530
REMARK  216  A    between atoms: _529  and  _532
REMARK  217  A    between atoms: _532  and  _533
REMARK  218  A    between atoms: _538  and  _540
REMARK  219  A    between atoms: _540  and  _541
REMARK  220  A    between atoms: _540  and  _543
REMARK  221  A    between atoms: _543  and  _544
REMARK  222  A    between atoms: _546  and  _548
REMARK  223  A    between atoms: _548  and  _549
REMARK  224  A    between atoms: _551  and  _553
REMARK  225  A    between atoms: _553  and  _554
REMARK  226  A    between atoms: _553  and  _556
REMARK  227  A    between atoms: _556  and  _557
REMARK  228  A    between atoms: _560  and  _562
REMARK  229  A    between atoms: _562  and  _563
REMARK  230  A    between atoms: _562  and  _565
REMARK  231  A    between atoms: _565  and  _566
REMARK  232  A    between atoms: _569  and  _571
REMARK  233  A    between atoms: _571  and  _572
REMARK  234  A    between atoms: _571  and  _574
REMARK  235  A    between atoms: _574  and  _575
REMARK  236  A    between atoms: _581  and  _583
REMARK  237  A    between atoms: _583  and  _584
REMARK  238  A    between atoms: _583  and  _586
REMARK  239  A    between atoms: _586  and  _587
REMARK  240  A    between atoms: _590  and  _592
REMARK  241  A    between atoms: _592  and  _593
REMARK  242  A    between atoms: _592  and  _595
REMARK  243  A    between atoms: _598  and  _600
REMARK  244  A    between atoms: _600  and  _601
REMARK  245  A    between atoms: _600  and  _603
REMARK  246  A    between atoms: _603  and  _604
REMARK  247  A    between atoms: _607  and  _609
REMARK  248  A    between atoms: _609  and  _610
REMARK  249  A    between atoms: _609  and  _612
REMARK  250  A    between atoms: _612  and  _613
REMARK  251  A    between atoms: _613  and  _614
REMARK  252  A    between atoms: _614  and  _615
REMARK  253  A    between atoms: _624  and  _626
REMARK  254  A    between atoms: _626  and  _627
REMARK  255  A    between atoms: _626  and  _629
REMARK  256  A    between atoms: _629  and  _630
REMARK                            x       y       z     vdW  Elec       q    Type
REMARK                         _______ _______ _______ _____ _____    ______ ____
ROOT
ATOM      1  O   HOH     1     -23.907  15.329  -3.678  0.00  0.00    +0.000 OA
ENDROOT
TORSDOF 0
