REMARK  Name = ../refined-set-2016/1rjk/1rjk_pocket.pdb
REMARK  292 active torsions:
REMARK  status: ('A' for Active; 'I' for Inactive)
REMARK    1  A    between atoms: _1  and  _3
REMARK    2  A    between atoms: _3  and  _4
REMARK    3  A    between atoms: _3  and  _6
REMARK    4  A    between atoms: _6  and  _7
REMARK    5  A    between atoms: _10  and  _12
REMARK    6  A    between atoms: _12  and  _13
REMARK    7  A    between atoms: _12  and  _15
REMARK    8  A    between atoms: _15  and  _16
REMARK    9  A    between atoms: _21  and  _22
REMARK   10  A    between atoms: _24  and  _26
REMARK   11  A    between atoms: _26  and  _27
REMARK   12  A    between atoms: _26  and  _29
REMARK   13  A    between atoms: _29  and  _30
REMARK   14  A    between atoms: _34  and  _35
REMARK   15  A    between atoms: _40  and  _42
REMARK   16  A    between atoms: _42  and  _43
REMARK   17  A    between atoms: _42  and  _45
REMARK   18  A    between atoms: _45  and  _46
REMARK   19  A    between atoms: _51  and  _52
REMARK   20  A    between atoms: _54  and  _56
REMARK   21  A    between atoms: _56  and  _57
REMARK   22  A    between atoms: _56  and  _59
REMARK   23  A    between atoms: _59  and  _60
REMARK   24  A    between atoms: _66  and  _68
REMARK   25  A    between atoms: _68  and  _69
REMARK   26  A    between atoms: _68  and  _71
REMARK   27  A    between atoms: _71  and  _72
REMARK   28  A    between atoms: _78  and  _80
REMARK   29  A    between atoms: _80  and  _81
REMARK   30  A    between atoms: _80  and  _83
REMARK   31  A    between atoms: _83  and  _84
REMARK   32  A    between atoms: _84  and  _85
REMARK   33  A    between atoms: _85  and  _86
REMARK   34  A    between atoms: _95  and  _97
REMARK   35  A    between atoms: _97  and  _98
REMARK   36  A    between atoms: _97  and  _100
REMARK   37  A    between atoms: _100  and  _101
REMARK   38  A    between atoms: _104  and  _106
REMARK   39  A    between atoms: _106  and  _107
REMARK   40  A    between atoms: _106  and  _109
REMARK   41  A    between atoms: _109  and  _110
REMARK   42  A    between atoms: _110  and  _111
REMARK   43  A    between atoms: _113  and  _115
REMARK   44  A    between atoms: _115  and  _116
REMARK   45  A    between atoms: _115  and  _118
REMARK   46  A    between atoms: _118  and  _119
REMARK   47  A    between atoms: _123  and  _124
REMARK   48  A    between atoms: _129  and  _131
REMARK   49  A    between atoms: _131  and  _132
REMARK   50  A    between atoms: _131  and  _134
REMARK   51  A    between atoms: _134  and  _135
REMARK   52  A    between atoms: _140  and  _142
REMARK   53  A    between atoms: _142  and  _143
REMARK   54  A    between atoms: _142  and  _145
REMARK   55  A    between atoms: _145  and  _146
REMARK   56  A    between atoms: _149  and  _151
REMARK   57  A    between atoms: _151  and  _152
REMARK   58  A    between atoms: _155  and  _157
REMARK   59  A    between atoms: _157  and  _158
REMARK   60  A    between atoms: _157  and  _160
REMARK   61  A    between atoms: _160  and  _161
REMARK   62  A    between atoms: _164  and  _166
REMARK   63  A    between atoms: _166  and  _167
REMARK   64  A    between atoms: _166  and  _169
REMARK   65  A    between atoms: _169  and  _170
REMARK   66  A    between atoms: _173  and  _175
REMARK   67  A    between atoms: _175  and  _176
REMARK   68  A    between atoms: _175  and  _178
REMARK   69  A    between atoms: _181  and  _183
REMARK   70  A    between atoms: _183  and  _184
REMARK   71  A    between atoms: _183  and  _186
REMARK   72  A    between atoms: _186  and  _187
REMARK   73  A    between atoms: _189  and  _191
REMARK   74  A    between atoms: _191  and  _192
REMARK   75  A    between atoms: _191  and  _194
REMARK   76  A    between atoms: _194  and  _195
REMARK   77  A    between atoms: _200  and  _201
REMARK   78  A    between atoms: _203  and  _205
REMARK   79  A    between atoms: _205  and  _206
REMARK   80  A    between atoms: _205  and  _208
REMARK   81  A    between atoms: _208  and  _209
REMARK   82  A    between atoms: _211  and  _213
REMARK   83  A    between atoms: _213  and  _214
REMARK   84  A    between atoms: _213  and  _216
REMARK   85  A    between atoms: _216  and  _217
REMARK   86  A    between atoms: _220  and  _222
REMARK   87  A    between atoms: _222  and  _223
REMARK   88  A    between atoms: _222  and  _225
REMARK   89  A    between atoms: _225  and  _226
REMARK   90  A    between atoms: _226  and  _227
REMARK   91  A    between atoms: _227  and  _228
REMARK   92  A    between atoms: _228  and  _229
REMARK   93  A    between atoms: _233  and  _235
REMARK   94  A    between atoms: _235  and  _236
REMARK   95  A    between atoms: _235  and  _238
REMARK   96  A    between atoms: _241  and  _243
REMARK   97  A    between atoms: _243  and  _244
REMARK   98  A    between atoms: _247  and  _249
REMARK   99  A    between atoms: _249  and  _250
REMARK  100  A    between atoms: _249  and  _252
REMARK  101  A    between atoms: _252  and  _253
REMARK  102  A    between atoms: _256  and  _258
REMARK  103  A    between atoms: _258  and  _259
REMARK  104  A    between atoms: _258  and  _261
REMARK  105  A    between atoms: _261  and  _262
REMARK  106  A    between atoms: _262  and  _263
REMARK  107  A    between atoms: _266  and  _268
REMARK  108  A    between atoms: _268  and  _269
REMARK  109  A    between atoms: _268  and  _271
REMARK  110  A    between atoms: _274  and  _276
REMARK  111  A    between atoms: _276  and  _277
REMARK  112  A    between atoms: _276  and  _279
REMARK  113  A    between atoms: _279  and  _280
REMARK  114  A    between atoms: _283  and  _285
REMARK  115  A    between atoms: _285  and  _286
REMARK  116  A    between atoms: _285  and  _288
REMARK  117  A    between atoms: _288  and  _289
REMARK  118  A    between atoms: _289  and  _290
REMARK  119  A    between atoms: _292  and  _294
REMARK  120  A    between atoms: _294  and  _295
REMARK  121  A    between atoms: _294  and  _297
REMARK  122  A    between atoms: _297  and  _298
REMARK  123  A    between atoms: _301  and  _303
REMARK  124  A    between atoms: _303  and  _304
REMARK  125  A    between atoms: _303  and  _306
REMARK  126  A    between atoms: _306  and  _307
REMARK  127  A    between atoms: _307  and  _308
REMARK  128  A    between atoms: _308  and  _309
REMARK  129  A    between atoms: _318  and  _320
REMARK  130  A    between atoms: _320  and  _321
REMARK  131  A    between atoms: _320  and  _323
REMARK  132  A    between atoms: _323  and  _324
REMARK  133  A    between atoms: _326  and  _328
REMARK  134  A    between atoms: _328  and  _329
REMARK  135  A    between atoms: _328  and  _331
REMARK  136  A    between atoms: _331  and  _332
REMARK  137  A    between atoms: _337  and  _339
REMARK  138  A    between atoms: _339  and  _340
REMARK  139  A    between atoms: _339  and  _342
REMARK  140  A    between atoms: _342  and  _343
REMARK  141  A    between atoms: _343  and  _344
REMARK  142  A    between atoms: _349  and  _351
REMARK  143  A    between atoms: _351  and  _352
REMARK  144  A    between atoms: _351  and  _354
REMARK  145  A    between atoms: _354  and  _355
REMARK  146  A    between atoms: _357  and  _359
REMARK  147  A    between atoms: _359  and  _360
REMARK  148  A    between atoms: _359  and  _362
REMARK  149  A    between atoms: _362  and  _363
REMARK  150  A    between atoms: _369  and  _371
REMARK  151  A    between atoms: _371  and  _372
REMARK  152  A    between atoms: _371  and  _374
REMARK  153  A    between atoms: _374  and  _375
REMARK  154  A    between atoms: _377  and  _379
REMARK  155  A    between atoms: _379  and  _380
REMARK  156  A    between atoms: _379  and  _382
REMARK  157  A    between atoms: _382  and  _383
REMARK  158  A    between atoms: _393  and  _395
REMARK  159  A    between atoms: _395  and  _396
REMARK  160  A    between atoms: _395  and  _398
REMARK  161  A    between atoms: _398  and  _399
REMARK  162  A    between atoms: _402  and  _404
REMARK  163  A    between atoms: _404  and  _405
REMARK  164  A    between atoms: _404  and  _407
REMARK  165  A    between atoms: _409  and  _411
REMARK  166  A    between atoms: _411  and  _412
REMARK  167  A    between atoms: _411  and  _414
REMARK  168  A    between atoms: _414  and  _415
REMARK  169  A    between atoms: _420  and  _421
REMARK  170  A    between atoms: _423  and  _425
REMARK  171  A    between atoms: _425  and  _426
REMARK  172  A    between atoms: _425  and  _428
REMARK  173  A    between atoms: _428  and  _429
REMARK  174  A    between atoms: _429  and  _430
REMARK  175  A    between atoms: _430  and  _431
REMARK  176  A    between atoms: _431  and  _432
REMARK  177  A    between atoms: _436  and  _438
REMARK  178  A    between atoms: _438  and  _439
REMARK  179  A    between atoms: _438  and  _441
REMARK  180  A    between atoms: _441  and  _442
REMARK  181  A    between atoms: _447  and  _448
REMARK  182  A    between atoms: _450  and  _452
REMARK  183  A    between atoms: _452  and  _453
REMARK  184  A    between atoms: _452  and  _455
REMARK  185  A    between atoms: _455  and  _456
REMARK  186  A    between atoms: _459  and  _461
REMARK  187  A    between atoms: _461  and  _462
REMARK  188  A    between atoms: _461  and  _464
REMARK  189  A    between atoms: _464  and  _465
REMARK  190  A    between atoms: _468  and  _470
REMARK  191  A    between atoms: _470  and  _471
REMARK  192  A    between atoms: _470  and  _473
REMARK  193  A    between atoms: _476  and  _478
REMARK  194  A    between atoms: _478  and  _479
REMARK  195  A    between atoms: _478  and  _481
REMARK  196  A    between atoms: _481  and  _482
REMARK  197  A    between atoms: _484  and  _486
REMARK  198  A    between atoms: _486  and  _487
REMARK  199  A    between atoms: _490  and  _492
REMARK  200  A    between atoms: _492  and  _493
REMARK  201  A    between atoms: _495  and  _497
REMARK  202  A    between atoms: _497  and  _498
REMARK  203  A    between atoms: _497  and  _500
REMARK  204  A    between atoms: _500  and  _501
REMARK  205  A    between atoms: _506  and  _508
REMARK  206  A    between atoms: _508  and  _509
REMARK  207  A    between atoms: _508  and  _511
REMARK  208  A    between atoms: _511  and  _512
REMARK  209  A    between atoms: _515  and  _517
REMARK  210  A    between atoms: _517  and  _518
REMARK  211  A    between atoms: _517  and  _520
REMARK  212  A    between atoms: _520  and  _521
REMARK  213  A    between atoms: _524  and  _526
REMARK  214  A    between atoms: _526  and  _527
REMARK  215  A    between atoms: _526  and  _529
REMARK  216  A    between atoms: _529  and  _530
REMARK  217  A    between atoms: _533  and  _535
REMARK  218  A    between atoms: _535  and  _536
REMARK  219  A    between atoms: _535  and  _538
REMARK  220  A    between atoms: _538  and  _539
REMARK  221  A    between atoms: _545  and  _547
REMARK  222  A    between atoms: _547  and  _548
REMARK  223  A    between atoms: _547  and  _550
REMARK  224  A    between atoms: _550  and  _551
REMARK  225  A    between atoms: _551  and  _552
REMARK  226  A    between atoms: _557  and  _559
REMARK  227  A    between atoms: _559  and  _560
REMARK  228  A    between atoms: _559  and  _562
REMARK  229  A    between atoms: _562  and  _563
REMARK  230  A    between atoms: _566  and  _568
REMARK  231  A    between atoms: _568  and  _569
REMARK  232  A    between atoms: _568  and  _571
REMARK  233  A    between atoms: _571  and  _572
REMARK  234  A    between atoms: _572  and  _573
REMARK  235  A    between atoms: _576  and  _578
REMARK  236  A    between atoms: _578  and  _579
REMARK  237  A    between atoms: _578  and  _581
REMARK  238  A    between atoms: _581  and  _582
REMARK  239  A    between atoms: _587  and  _589
REMARK  240  A    between atoms: _589  and  _590
REMARK  241  A    between atoms: _589  and  _592
REMARK  242  A    between atoms: _592  and  _593
REMARK  243  A    between atoms: _595  and  _597
REMARK  244  A    between atoms: _597  and  _598
REMARK  245  A    between atoms: _597  and  _600
REMARK  246  A    between atoms: _600  and  _601
REMARK  247  A    between atoms: _601  and  _602
REMARK  248  A    between atoms: _607  and  _609
REMARK  249  A    between atoms: _609  and  _610
REMARK  250  A    between atoms: _609  and  _612
REMARK  251  A    between atoms: _612  and  _613
REMARK  252  A    between atoms: _618  and  _619
REMARK  253  A    between atoms: _621  and  _623
REMARK  254  A    between atoms: _623  and  _624
REMARK  255  A    between atoms: _623  and  _626
REMARK  256  A    between atoms: _626  and  _627
REMARK  257  A    between atoms: _627  and  _628
REMARK  258  A    between atoms: _628  and  _629
REMARK  259  A    between atoms: _638  and  _640
REMARK  260  A    between atoms: _640  and  _641
REMARK  261  A    between atoms: _640  and  _643
REMARK  262  A    between atoms: _643  and  _644
REMARK  263  A    between atoms: _647  and  _649
REMARK  264  A    between atoms: _649  and  _650
REMARK  265  A    between atoms: _649  and  _652
REMARK  266  A    between atoms: _652  and  _653
REMARK  267  A    between atoms: _655  and  _657
REMARK  268  A    between atoms: _657  and  _658
REMARK  269  A    between atoms: _657  and  _660
REMARK  270  A    between atoms: _660  and  _661
REMARK  271  A    between atoms: _666  and  _668
REMARK  272  A    between atoms: _668  and  _669
REMARK  273  A    between atoms: _668  and  _671
REMARK  274  A    between atoms: _671  and  _672
REMARK  275  A    between atoms: _672  and  _673
REMARK  276  A    between atoms: _673  and  _674
REMARK  277  A    between atoms: _674  and  _675
REMARK  278  A    between atoms: _679  and  _681
REMARK  279  A    between atoms: _681  and  _682
REMARK  280  A    between atoms: _681  and  _684
REMARK  281  A    between atoms: _684  and  _685
REMARK  282  A    between atoms: _688  and  _690
REMARK  283  A    between atoms: _690  and  _691
REMARK  284  A    between atoms: _690  and  _693
REMARK  285  A    between atoms: _693  and  _694
REMARK  286  A    between atoms: _697  and  _699
REMARK  287  A    between atoms: _699  and  _700
REMARK  288  A    between atoms: _699  and  _702
REMARK  289  A    between atoms: _705  and  _707
REMARK  290  A    between atoms: _707  and  _708
REMARK  291  A    between atoms: _707  and  _710
REMARK  292  A    between atoms: _710  and  _711
REMARK                            x       y       z     vdW  Elec       q    Type
REMARK                         _______ _______ _______ _____ _____    ______ ____
ROOT
ATOM      1  CA  TYR A   2      59.353   7.410   9.225  0.00  0.00    +0.153 C 
ENDROOT
BRANCH   1   3
ATOM      2  C   THR A   1      60.281   5.475  10.391  0.00  0.00    +0.241 C 
ATOM      3  N   TYR A   2      59.557   6.586  10.424  0.00  0.00    -0.297 N 
ATOM      4  H   TYR A   2      59.123   6.881  11.322  0.00  0.00    +0.150 HD
ATOM      5  O   THR A   1      60.825   5.085   9.380  0.00  0.00    -0.274 OA
BRANCH   2   6
ATOM      6  CA  THR A   1      60.449   4.690  11.701  0.00  0.00    +0.172 C 
BRANCH   6   7
ATOM      7  N   THR A   1      59.710   5.262  12.845  0.00  0.00    -0.236 NA
ATOM      8  H   THR A   1      58.682   5.403  12.769  0.00  0.00    +0.142 HD
ENDBRANCH   6   7
BRANCH   6   9
ATOM      9  CB  THR A   1      60.038   3.214  11.453  0.00  0.00    +0.135 C 
ATOM     10  CG2 THR A   1      60.464   2.313  12.625  0.00  0.00    +0.034 C 
BRANCH   9  11
ATOM     11  OG1 THR A   1      58.609   3.118  11.384  0.00  0.00    -0.383 OA
ATOM     12  HG1 THR A   1      58.217   3.430  12.238  0.00  0.00    +0.210 HD
ENDBRANCH   9  11
ENDBRANCH   6   9
ENDBRANCH   2   6
ENDBRANCH   1   3
BRANCH   1  13
ATOM     13  C   TYR A   2      59.527   8.889   9.584  0.00  0.00    +0.241 C 
ATOM     14  O   TYR A   2      58.650   9.491  10.231  0.00  0.00    -0.273 OA
ATOM     15  N   ASP A   3      60.673   9.445   9.195  0.00  0.00    -0.297 N 
ATOM     16  H   ASP A   3      61.349   8.860   8.664  0.00  0.00    +0.150 HD
BRANCH  15  17
ATOM     17  CA  ASP A   3      61.030  10.835   9.475  0.00  0.00    +0.160 C 
BRANCH  17  18
ATOM     18  C   ASP A   3      60.549  11.689   8.324  0.00  0.00    +0.244 C 
ATOM     19  N   PRO A   4      59.455  12.430   8.545  0.00  0.00    -0.273 N 
ATOM     20  CD  PRO A   4      58.700  12.542   9.814  0.00  0.00    +0.094 C 
ATOM     21  CG  PRO A   4      57.670  13.675   9.509  0.00  0.00    +0.024 C 
ATOM     22  CB  PRO A   4      57.479  13.651   8.062  0.00  0.00    +0.030 C 
ATOM     23  CA  PRO A   4      58.851  13.232   7.480  0.00  0.00    +0.140 C 
ATOM     24  O   ASP A   3      61.155  11.675   7.247  0.00  0.00    -0.273 OA
BRANCH  23  25
ATOM     25  C   PRO A   4      59.720  14.421   7.073  0.00  0.00    +0.227 C 
ATOM     26  O   PRO A   4      59.349  15.071   6.125  0.00  0.00    -0.286 OA
ENDBRANCH  23  25
ENDBRANCH  17  18
BRANCH  17  27
ATOM     27  CB  ASP A   3      62.543  10.971   9.669  0.00  0.00    +0.143 C 
BRANCH  27  28
ATOM     28  CG  ASP A   3      63.017  12.430   9.673  0.00  0.00    +0.367 C 
ATOM     29  OD2 ASP A   3      62.205  13.386   9.809  0.00  0.00    -0.246 OA
ATOM     30  OD1 ASP A   3      64.205  12.702   9.509  0.00  0.00    -0.246 OA
ENDBRANCH  27  28
ENDBRANCH  17  27
ENDBRANCH  15  17
ENDBRANCH   1  13
BRANCH   1  31
ATOM     31  CB  TYR A   2      57.965   7.162   8.608  0.00  0.00    +0.055 C 
BRANCH  31  32
ATOM     32  CG  TYR A   2      57.857   7.717   7.214  0.00  0.00    -0.020 A 
ATOM     33  CD2 TYR A   2      57.675   9.100   6.998  0.00  0.00    -0.001 A 
ATOM     34  CE2 TYR A   2      57.605   9.616   5.744  0.00  0.00    +0.036 A 
ATOM     35  CZ  TYR A   2      57.766   8.791   4.640  0.00  0.00    +0.134 A 
ATOM     36  CE1 TYR A   2      57.975   7.430   4.803  0.00  0.00    +0.036 A 
ATOM     37  CD1 TYR A   2      58.005   6.889   6.100  0.00  0.00    -0.001 A 
BRANCH  35  38
ATOM     38  OH  TYR A   2      57.713   9.311   3.364  0.00  0.00    -0.506 OA
ATOM     39  HH  TYR A   2      57.559  10.288   3.413  0.00  0.00    +0.292 HD
ENDBRANCH  35  38
ENDBRANCH  31  32
ENDBRANCH   1  31
TORSDOF 14
REMARK  Name = ../refined-set-2016/1rjk/1rjk_pocket.pdb
REMARK  292 active torsions:
REMARK  status: ('A' for Active; 'I' for Inactive)
REMARK    1  A    between atoms: _1  and  _3
REMARK    2  A    between atoms: _3  and  _4
REMARK    3  A    between atoms: _3  and  _6
REMARK    4  A    between atoms: _6  and  _7
REMARK    5  A    between atoms: _10  and  _12
REMARK    6  A    between atoms: _12  and  _13
REMARK    7  A    between atoms: _12  and  _15
REMARK    8  A    between atoms: _15  and  _16
REMARK    9  A    between atoms: _21  and  _22
REMARK   10  A    between atoms: _24  and  _26
REMARK   11  A    between atoms: _26  and  _27
REMARK   12  A    between atoms: _26  and  _29
REMARK   13  A    between atoms: _29  and  _30
REMARK   14  A    between atoms: _34  and  _35
REMARK   15  A    between atoms: _40  and  _42
REMARK   16  A    between atoms: _42  and  _43
REMARK   17  A    between atoms: _42  and  _45
REMARK   18  A    between atoms: _45  and  _46
REMARK   19  A    between atoms: _51  and  _52
REMARK   20  A    between atoms: _54  and  _56
REMARK   21  A    between atoms: _56  and  _57
REMARK   22  A    between atoms: _56  and  _59
REMARK   23  A    between atoms: _59  and  _60
REMARK   24  A    between atoms: _66  and  _68
REMARK   25  A    between atoms: _68  and  _69
REMARK   26  A    between atoms: _68  and  _71
REMARK   27  A    between atoms: _71  and  _72
REMARK   28  A    between atoms: _78  and  _80
REMARK   29  A    between atoms: _80  and  _81
REMARK   30  A    between atoms: _80  and  _83
REMARK   31  A    between atoms: _83  and  _84
REMARK   32  A    between atoms: _84  and  _85
REMARK   33  A    between atoms: _85  and  _86
REMARK   34  A    between atoms: _95  and  _97
REMARK   35  A    between atoms: _97  and  _98
REMARK   36  A    between atoms: _97  and  _100
REMARK   37  A    between atoms: _100  and  _101
REMARK   38  A    between atoms: _104  and  _106
REMARK   39  A    between atoms: _106  and  _107
REMARK   40  A    between atoms: _106  and  _109
REMARK   41  A    between atoms: _109  and  _110
REMARK   42  A    between atoms: _110  and  _111
REMARK   43  A    between atoms: _113  and  _115
REMARK   44  A    between atoms: _115  and  _116
REMARK   45  A    between atoms: _115  and  _118
REMARK   46  A    between atoms: _118  and  _119
REMARK   47  A    between atoms: _123  and  _124
REMARK   48  A    between atoms: _129  and  _131
REMARK   49  A    between atoms: _131  and  _132
REMARK   50  A    between atoms: _131  and  _134
REMARK   51  A    between atoms: _134  and  _135
REMARK   52  A    between atoms: _140  and  _142
REMARK   53  A    between atoms: _142  and  _143
REMARK   54  A    between atoms: _142  and  _145
REMARK   55  A    between atoms: _145  and  _146
REMARK   56  A    between atoms: _149  and  _151
REMARK   57  A    between atoms: _151  and  _152
REMARK   58  A    between atoms: _155  and  _157
REMARK   59  A    between atoms: _157  and  _158
REMARK   60  A    between atoms: _157  and  _160
REMARK   61  A    between atoms: _160  and  _161
REMARK   62  A    between atoms: _164  and  _166
REMARK   63  A    between atoms: _166  and  _167
REMARK   64  A    between atoms: _166  and  _169
REMARK   65  A    between atoms: _169  and  _170
REMARK   66  A    between atoms: _173  and  _175
REMARK   67  A    between atoms: _175  and  _176
REMARK   68  A    between atoms: _175  and  _178
REMARK   69  A    between atoms: _181  and  _183
REMARK   70  A    between atoms: _183  and  _184
REMARK   71  A    between atoms: _183  and  _186
REMARK   72  A    between atoms: _186  and  _187
REMARK   73  A    between atoms: _189  and  _191
REMARK   74  A    between atoms: _191  and  _192
REMARK   75  A    between atoms: _191  and  _194
REMARK   76  A    between atoms: _194  and  _195
REMARK   77  A    between atoms: _200  and  _201
REMARK   78  A    between atoms: _203  and  _205
REMARK   79  A    between atoms: _205  and  _206
REMARK   80  A    between atoms: _205  and  _208
REMARK   81  A    between atoms: _208  and  _209
REMARK   82  A    between atoms: _211  and  _213
REMARK   83  A    between atoms: _213  and  _214
REMARK   84  A    between atoms: _213  and  _216
REMARK   85  A    between atoms: _216  and  _217
REMARK   86  A    between atoms: _220  and  _222
REMARK   87  A    between atoms: _222  and  _223
REMARK   88  A    between atoms: _222  and  _225
REMARK   89  A    between atoms: _225  and  _226
REMARK   90  A    between atoms: _226  and  _227
REMARK   91  A    between atoms: _227  and  _228
REMARK   92  A    between atoms: _228  and  _229
REMARK   93  A    between atoms: _233  and  _235
REMARK   94  A    between atoms: _235  and  _236
REMARK   95  A    between atoms: _235  and  _238
REMARK   96  A    between atoms: _241  and  _243
REMARK   97  A    between atoms: _243  and  _244
REMARK   98  A    between atoms: _247  and  _249
REMARK   99  A    between atoms: _249  and  _250
REMARK  100  A    between atoms: _249  and  _252
REMARK  101  A    between atoms: _252  and  _253
REMARK  102  A    between atoms: _256  and  _258
REMARK  103  A    between atoms: _258  and  _259
REMARK  104  A    between atoms: _258  and  _261
REMARK  105  A    between atoms: _261  and  _262
REMARK  106  A    between atoms: _262  and  _263
REMARK  107  A    between atoms: _266  and  _268
REMARK  108  A    between atoms: _268  and  _269
REMARK  109  A    between atoms: _268  and  _271
REMARK  110  A    between atoms: _274  and  _276
REMARK  111  A    between atoms: _276  and  _277
REMARK  112  A    between atoms: _276  and  _279
REMARK  113  A    between atoms: _279  and  _280
REMARK  114  A    between atoms: _283  and  _285
REMARK  115  A    between atoms: _285  and  _286
REMARK  116  A    between atoms: _285  and  _288
REMARK  117  A    between atoms: _288  and  _289
REMARK  118  A    between atoms: _289  and  _290
REMARK  119  A    between atoms: _292  and  _294
REMARK  120  A    between atoms: _294  and  _295
REMARK  121  A    between atoms: _294  and  _297
REMARK  122  A    between atoms: _297  and  _298
REMARK  123  A    between atoms: _301  and  _303
REMARK  124  A    between atoms: _303  and  _304
REMARK  125  A    between atoms: _303  and  _306
REMARK  126  A    between atoms: _306  and  _307
REMARK  127  A    between atoms: _307  and  _308
REMARK  128  A    between atoms: _308  and  _309
REMARK  129  A    between atoms: _318  and  _320
REMARK  130  A    between atoms: _320  and  _321
REMARK  131  A    between atoms: _320  and  _323
REMARK  132  A    between atoms: _323  and  _324
REMARK  133  A    between atoms: _326  and  _328
REMARK  134  A    between atoms: _328  and  _329
REMARK  135  A    between atoms: _328  and  _331
REMARK  136  A    between atoms: _331  and  _332
REMARK  137  A    between atoms: _337  and  _339
REMARK  138  A    between atoms: _339  and  _340
REMARK  139  A    between atoms: _339  and  _342
REMARK  140  A    between atoms: _342  and  _343
REMARK  141  A    between atoms: _343  and  _344
REMARK  142  A    between atoms: _349  and  _351
REMARK  143  A    between atoms: _351  and  _352
REMARK  144  A    between atoms: _351  and  _354
REMARK  145  A    between atoms: _354  and  _355
REMARK  146  A    between atoms: _357  and  _359
REMARK  147  A    between atoms: _359  and  _360
REMARK  148  A    between atoms: _359  and  _362
REMARK  149  A    between atoms: _362  and  _363
REMARK  150  A    between atoms: _369  and  _371
REMARK  151  A    between atoms: _371  and  _372
REMARK  152  A    between atoms: _371  and  _374
REMARK  153  A    between atoms: _374  and  _375
REMARK  154  A    between atoms: _377  and  _379
REMARK  155  A    between atoms: _379  and  _380
REMARK  156  A    between atoms: _379  and  _382
REMARK  157  A    between atoms: _382  and  _383
REMARK  158  A    between atoms: _393  and  _395
REMARK  159  A    between atoms: _395  and  _396
REMARK  160  A    between atoms: _395  and  _398
REMARK  161  A    between atoms: _398  and  _399
REMARK  162  A    between atoms: _402  and  _404
REMARK  163  A    between atoms: _404  and  _405
REMARK  164  A    between atoms: _404  and  _407
REMARK  165  A    between atoms: _409  and  _411
REMARK  166  A    between atoms: _411  and  _412
REMARK  167  A    between atoms: _411  and  _414
REMARK  168  A    between atoms: _414  and  _415
REMARK  169  A    between atoms: _420  and  _421
REMARK  170  A    between atoms: _423  and  _425
REMARK  171  A    between atoms: _425  and  _426
REMARK  172  A    between atoms: _425  and  _428
REMARK  173  A    between atoms: _428  and  _429
REMARK  174  A    between atoms: _429  and  _430
REMARK  175  A    between atoms: _430  and  _431
REMARK  176  A    between atoms: _431  and  _432
REMARK  177  A    between atoms: _436  and  _438
REMARK  178  A    between atoms: _438  and  _439
REMARK  179  A    between atoms: _438  and  _441
REMARK  180  A    between atoms: _441  and  _442
REMARK  181  A    between atoms: _447  and  _448
REMARK  182  A    between atoms: _450  and  _452
REMARK  183  A    between atoms: _452  and  _453
REMARK  184  A    between atoms: _452  and  _455
REMARK  185  A    between atoms: _455  and  _456
REMARK  186  A    between atoms: _459  and  _461
REMARK  187  A    between atoms: _461  and  _462
REMARK  188  A    between atoms: _461  and  _464
REMARK  189  A    between atoms: _464  and  _465
REMARK  190  A    between atoms: _468  and  _470
REMARK  191  A    between atoms: _470  and  _471
REMARK  192  A    between atoms: _470  and  _473
REMARK  193  A    between atoms: _476  and  _478
REMARK  194  A    between atoms: _478  and  _479
REMARK  195  A    between atoms: _478  and  _481
REMARK  196  A    between atoms: _481  and  _482
REMARK  197  A    between atoms: _484  and  _486
REMARK  198  A    between atoms: _486  and  _487
REMARK  199  A    between atoms: _490  and  _492
REMARK  200  A    between atoms: _492  and  _493
REMARK  201  A    between atoms: _495  and  _497
REMARK  202  A    between atoms: _497  and  _498
REMARK  203  A    between atoms: _497  and  _500
REMARK  204  A    between atoms: _500  and  _501
REMARK  205  A    between atoms: _506  and  _508
REMARK  206  A    between atoms: _508  and  _509
REMARK  207  A    between atoms: _508  and  _511
REMARK  208  A    between atoms: _511  and  _512
REMARK  209  A    between atoms: _515  and  _517
REMARK  210  A    between atoms: _517  and  _518
REMARK  211  A    between atoms: _517  and  _520
REMARK  212  A    between atoms: _520  and  _521
REMARK  213  A    between atoms: _524  and  _526
REMARK  214  A    between atoms: _526  and  _527
REMARK  215  A    between atoms: _526  and  _529
REMARK  216  A    between atoms: _529  and  _530
REMARK  217  A    between atoms: _533  and  _535
REMARK  218  A    between atoms: _535  and  _536
REMARK  219  A    between atoms: _535  and  _538
REMARK  220  A    between atoms: _538  and  _539
REMARK  221  A    between atoms: _545  and  _547
REMARK  222  A    between atoms: _547  and  _548
REMARK  223  A    between atoms: _547  and  _550
REMARK  224  A    between atoms: _550  and  _551
REMARK  225  A    between atoms: _551  and  _552
REMARK  226  A    between atoms: _557  and  _559
REMARK  227  A    between atoms: _559  and  _560
REMARK  228  A    between atoms: _559  and  _562
REMARK  229  A    between atoms: _562  and  _563
REMARK  230  A    between atoms: _566  and  _568
REMARK  231  A    between atoms: _568  and  _569
REMARK  232  A    between atoms: _568  and  _571
REMARK  233  A    between atoms: _571  and  _572
REMARK  234  A    between atoms: _572  and  _573
REMARK  235  A    between atoms: _576  and  _578
REMARK  236  A    between atoms: _578  and  _579
REMARK  237  A    between atoms: _578  and  _581
REMARK  238  A    between atoms: _581  and  _582
REMARK  239  A    between atoms: _587  and  _589
REMARK  240  A    between atoms: _589  and  _590
REMARK  241  A    between atoms: _589  and  _592
REMARK  242  A    between atoms: _592  and  _593
REMARK  243  A    between atoms: _595  and  _597
REMARK  244  A    between atoms: _597  and  _598
REMARK  245  A    between atoms: _597  and  _600
REMARK  246  A    between atoms: _600  and  _601
REMARK  247  A    between atoms: _601  and  _602
REMARK  248  A    between atoms: _607  and  _609
REMARK  249  A    between atoms: _609  and  _610
REMARK  250  A    between atoms: _609  and  _612
REMARK  251  A    between atoms: _612  and  _613
REMARK  252  A    between atoms: _618  and  _619
REMARK  253  A    between atoms: _621  and  _623
REMARK  254  A    between atoms: _623  and  _624
REMARK  255  A    between atoms: _623  and  _626
REMARK  256  A    between atoms: _626  and  _627
REMARK  257  A    between atoms: _627  and  _628
REMARK  258  A    between atoms: _628  and  _629
REMARK  259  A    between atoms: _638  and  _640
REMARK  260  A    between atoms: _640  and  _641
REMARK  261  A    between atoms: _640  and  _643
REMARK  262  A    between atoms: _643  and  _644
REMARK  263  A    between atoms: _647  and  _649
REMARK  264  A    between atoms: _649  and  _650
REMARK  265  A    between atoms: _649  and  _652
REMARK  266  A    between atoms: _652  and  _653
REMARK  267  A    between atoms: _655  and  _657
REMARK  268  A    between atoms: _657  and  _658
REMARK  269  A    between atoms: _657  and  _660
REMARK  270  A    between atoms: _660  and  _661
REMARK  271  A    between atoms: _666  and  _668
REMARK  272  A    between atoms: _668  and  _669
REMARK  273  A    between atoms: _668  and  _671
REMARK  274  A    between atoms: _671  and  _672
REMARK  275  A    between atoms: _672  and  _673
REMARK  276  A    between atoms: _673  and  _674
REMARK  277  A    between atoms: _674  and  _675
REMARK  278  A    between atoms: _679  and  _681
REMARK  279  A    between atoms: _681  and  _682
REMARK  280  A    between atoms: _681  and  _684
REMARK  281  A    between atoms: _684  and  _685
REMARK  282  A    between atoms: _688  and  _690
REMARK  283  A    between atoms: _690  and  _691
REMARK  284  A    between atoms: _690  and  _693
REMARK  285  A    between atoms: _693  and  _694
REMARK  286  A    between atoms: _697  and  _699
REMARK  287  A    between atoms: _699  and  _700
REMARK  288  A    between atoms: _699  and  _702
REMARK  289  A    between atoms: _705  and  _707
REMARK  290  A    between atoms: _707  and  _708
REMARK  291  A    between atoms: _707  and  _710
REMARK  292  A    between atoms: _710  and  _711
REMARK                            x       y       z     vdW  Elec       q    Type
REMARK                         _______ _______ _______ _____ _____    ______ ____
ROOT
ATOM      1  CG  TYR A   1      62.132  12.833   3.751  0.00  0.00    -0.020 A 
ATOM      2  CD2 TYR A   1      61.684  11.503   3.836  0.00  0.00    -0.001 A 
ATOM      3  CE2 TYR A   1      60.351  11.184   3.666  0.00  0.00    +0.036 A 
ATOM      4  CZ  TYR A   1      59.415  12.188   3.405  0.00  0.00    +0.134 A 
ATOM      5  CE1 TYR A   1      59.832  13.528   3.313  0.00  0.00    +0.036 A 
ATOM      6  CD1 TYR A   1      61.189  13.837   3.507  0.00  0.00    -0.001 A 
ENDROOT
BRANCH   4   7
ATOM      7  OH  TYR A   1      58.076  11.860   3.214  0.00  0.00    -0.506 OA
ATOM      8  HH  TYR A   1      57.557  12.685   3.041  0.00  0.00    +0.292 HD
ENDBRANCH   4   7
BRANCH   1   9
ATOM      9  CB  TYR A   1      63.586  13.173   3.993  0.00  0.00    +0.051 C 
BRANCH   9  10
ATOM     10  CA  TYR A   1      63.990  12.970   5.477  0.00  0.00    +0.137 C 
BRANCH  10  11
ATOM     11  N   TYR A   1      63.049  13.662   6.356  0.00  0.00    -0.239 NA
ATOM     12  H   TYR A   1      62.419  13.102   6.965  0.00  0.00    +0.142 HD
ENDBRANCH  10  11
BRANCH  10  13
ATOM     13  C   TYR A   1      65.450  13.380   5.744  0.00  0.00    +0.224 C 
ATOM     14  O   TYR A   1      66.288  13.405   4.824  0.00  0.00    -0.287 OA
ENDBRANCH  10  13
ENDBRANCH   9  10
ENDBRANCH   1   9
TORSDOF 5
REMARK  Name = ../refined-set-2016/1rjk/1rjk_pocket.pdb
REMARK  292 active torsions:
REMARK  status: ('A' for Active; 'I' for Inactive)
REMARK    1  A    between atoms: _1  and  _3
REMARK    2  A    between atoms: _3  and  _4
REMARK    3  A    between atoms: _3  and  _6
REMARK    4  A    between atoms: _6  and  _7
REMARK    5  A    between atoms: _10  and  _12
REMARK    6  A    between atoms: _12  and  _13
REMARK    7  A    between atoms: _12  and  _15
REMARK    8  A    between atoms: _15  and  _16
REMARK    9  A    between atoms: _21  and  _22
REMARK   10  A    between atoms: _24  and  _26
REMARK   11  A    between atoms: _26  and  _27
REMARK   12  A    between atoms: _26  and  _29
REMARK   13  A    between atoms: _29  and  _30
REMARK   14  A    between atoms: _34  and  _35
REMARK   15  A    between atoms: _40  and  _42
REMARK   16  A    between atoms: _42  and  _43
REMARK   17  A    between atoms: _42  and  _45
REMARK   18  A    between atoms: _45  and  _46
REMARK   19  A    between atoms: _51  and  _52
REMARK   20  A    between atoms: _54  and  _56
REMARK   21  A    between atoms: _56  and  _57
REMARK   22  A    between atoms: _56  and  _59
REMARK   23  A    between atoms: _59  and  _60
REMARK   24  A    between atoms: _66  and  _68
REMARK   25  A    between atoms: _68  and  _69
REMARK   26  A    between atoms: _68  and  _71
REMARK   27  A    between atoms: _71  and  _72
REMARK   28  A    between atoms: _78  and  _80
REMARK   29  A    between atoms: _80  and  _81
REMARK   30  A    between atoms: _80  and  _83
REMARK   31  A    between atoms: _83  and  _84
REMARK   32  A    between atoms: _84  and  _85
REMARK   33  A    between atoms: _85  and  _86
REMARK   34  A    between atoms: _95  and  _97
REMARK   35  A    between atoms: _97  and  _98
REMARK   36  A    between atoms: _97  and  _100
REMARK   37  A    between atoms: _100  and  _101
REMARK   38  A    between atoms: _104  and  _106
REMARK   39  A    between atoms: _106  and  _107
REMARK   40  A    between atoms: _106  and  _109
REMARK   41  A    between atoms: _109  and  _110
REMARK   42  A    between atoms: _110  and  _111
REMARK   43  A    between atoms: _113  and  _115
REMARK   44  A    between atoms: _115  and  _116
REMARK   45  A    between atoms: _115  and  _118
REMARK   46  A    between atoms: _118  and  _119
REMARK   47  A    between atoms: _123  and  _124
REMARK   48  A    between atoms: _129  and  _131
REMARK   49  A    between atoms: _131  and  _132
REMARK   50  A    between atoms: _131  and  _134
REMARK   51  A    between atoms: _134  and  _135
REMARK   52  A    between atoms: _140  and  _142
REMARK   53  A    between atoms: _142  and  _143
REMARK   54  A    between atoms: _142  and  _145
REMARK   55  A    between atoms: _145  and  _146
REMARK   56  A    between atoms: _149  and  _151
REMARK   57  A    between atoms: _151  and  _152
REMARK   58  A    between atoms: _155  and  _157
REMARK   59  A    between atoms: _157  and  _158
REMARK   60  A    between atoms: _157  and  _160
REMARK   61  A    between atoms: _160  and  _161
REMARK   62  A    between atoms: _164  and  _166
REMARK   63  A    between atoms: _166  and  _167
REMARK   64  A    between atoms: _166  and  _169
REMARK   65  A    between atoms: _169  and  _170
REMARK   66  A    between atoms: _173  and  _175
REMARK   67  A    between atoms: _175  and  _176
REMARK   68  A    between atoms: _175  and  _178
REMARK   69  A    between atoms: _181  and  _183
REMARK   70  A    between atoms: _183  and  _184
REMARK   71  A    between atoms: _183  and  _186
REMARK   72  A    between atoms: _186  and  _187
REMARK   73  A    between atoms: _189  and  _191
REMARK   74  A    between atoms: _191  and  _192
REMARK   75  A    between atoms: _191  and  _194
REMARK   76  A    between atoms: _194  and  _195
REMARK   77  A    between atoms: _200  and  _201
REMARK   78  A    between atoms: _203  and  _205
REMARK   79  A    between atoms: _205  and  _206
REMARK   80  A    between atoms: _205  and  _208
REMARK   81  A    between atoms: _208  and  _209
REMARK   82  A    between atoms: _211  and  _213
REMARK   83  A    between atoms: _213  and  _214
REMARK   84  A    between atoms: _213  and  _216
REMARK   85  A    between atoms: _216  and  _217
REMARK   86  A    between atoms: _220  and  _222
REMARK   87  A    between atoms: _222  and  _223
REMARK   88  A    between atoms: _222  and  _225
REMARK   89  A    between atoms: _225  and  _226
REMARK   90  A    between atoms: _226  and  _227
REMARK   91  A    between atoms: _227  and  _228
REMARK   92  A    between atoms: _228  and  _229
REMARK   93  A    between atoms: _233  and  _235
REMARK   94  A    between atoms: _235  and  _236
REMARK   95  A    between atoms: _235  and  _238
REMARK   96  A    between atoms: _241  and  _243
REMARK   97  A    between atoms: _243  and  _244
REMARK   98  A    between atoms: _247  and  _249
REMARK   99  A    between atoms: _249  and  _250
REMARK  100  A    between atoms: _249  and  _252
REMARK  101  A    between atoms: _252  and  _253
REMARK  102  A    between atoms: _256  and  _258
REMARK  103  A    between atoms: _258  and  _259
REMARK  104  A    between atoms: _258  and  _261
REMARK  105  A    between atoms: _261  and  _262
REMARK  106  A    between atoms: _262  and  _263
REMARK  107  A    between atoms: _266  and  _268
REMARK  108  A    between atoms: _268  and  _269
REMARK  109  A    between atoms: _268  and  _271
REMARK  110  A    between atoms: _274  and  _276
REMARK  111  A    between atoms: _276  and  _277
REMARK  112  A    between atoms: _276  and  _279
REMARK  113  A    between atoms: _279  and  _280
REMARK  114  A    between atoms: _283  and  _285
REMARK  115  A    between atoms: _285  and  _286
REMARK  116  A    between atoms: _285  and  _288
REMARK  117  A    between atoms: _288  and  _289
REMARK  118  A    between atoms: _289  and  _290
REMARK  119  A    between atoms: _292  and  _294
REMARK  120  A    between atoms: _294  and  _295
REMARK  121  A    between atoms: _294  and  _297
REMARK  122  A    between atoms: _297  and  _298
REMARK  123  A    between atoms: _301  and  _303
REMARK  124  A    between atoms: _303  and  _304
REMARK  125  A    between atoms: _303  and  _306
REMARK  126  A    between atoms: _306  and  _307
REMARK  127  A    between atoms: _307  and  _308
REMARK  128  A    between atoms: _308  and  _309
REMARK  129  A    between atoms: _318  and  _320
REMARK  130  A    between atoms: _320  and  _321
REMARK  131  A    between atoms: _320  and  _323
REMARK  132  A    between atoms: _323  and  _324
REMARK  133  A    between atoms: _326  and  _328
REMARK  134  A    between atoms: _328  and  _329
REMARK  135  A    between atoms: _328  and  _331
REMARK  136  A    between atoms: _331  and  _332
REMARK  137  A    between atoms: _337  and  _339
REMARK  138  A    between atoms: _339  and  _340
REMARK  139  A    between atoms: _339  and  _342
REMARK  140  A    between atoms: _342  and  _343
REMARK  141  A    between atoms: _343  and  _344
REMARK  142  A    between atoms: _349  and  _351
REMARK  143  A    between atoms: _351  and  _352
REMARK  144  A    between atoms: _351  and  _354
REMARK  145  A    between atoms: _354  and  _355
REMARK  146  A    between atoms: _357  and  _359
REMARK  147  A    between atoms: _359  and  _360
REMARK  148  A    between atoms: _359  and  _362
REMARK  149  A    between atoms: _362  and  _363
REMARK  150  A    between atoms: _369  and  _371
REMARK  151  A    between atoms: _371  and  _372
REMARK  152  A    between atoms: _371  and  _374
REMARK  153  A    between atoms: _374  and  _375
REMARK  154  A    between atoms: _377  and  _379
REMARK  155  A    between atoms: _379  and  _380
REMARK  156  A    between atoms: _379  and  _382
REMARK  157  A    between atoms: _382  and  _383
REMARK  158  A    between atoms: _393  and  _395
REMARK  159  A    between atoms: _395  and  _396
REMARK  160  A    between atoms: _395  and  _398
REMARK  161  A    between atoms: _398  and  _399
REMARK  162  A    between atoms: _402  and  _404
REMARK  163  A    between atoms: _404  and  _405
REMARK  164  A    between atoms: _404  and  _407
REMARK  165  A    between atoms: _409  and  _411
REMARK  166  A    between atoms: _411  and  _412
REMARK  167  A    between atoms: _411  and  _414
REMARK  168  A    between atoms: _414  and  _415
REMARK  169  A    between atoms: _420  and  _421
REMARK  170  A    between atoms: _423  and  _425
REMARK  171  A    between atoms: _425  and  _426
REMARK  172  A    between atoms: _425  and  _428
REMARK  173  A    between atoms: _428  and  _429
REMARK  174  A    between atoms: _429  and  _430
REMARK  175  A    between atoms: _430  and  _431
REMARK  176  A    between atoms: _431  and  _432
REMARK  177  A    between atoms: _436  and  _438
REMARK  178  A    between atoms: _438  and  _439
REMARK  179  A    between atoms: _438  and  _441
REMARK  180  A    between atoms: _441  and  _442
REMARK  181  A    between atoms: _447  and  _448
REMARK  182  A    between atoms: _450  and  _452
REMARK  183  A    between atoms: _452  and  _453
REMARK  184  A    between atoms: _452  and  _455
REMARK  185  A    between atoms: _455  and  _456
REMARK  186  A    between atoms: _459  and  _461
REMARK  187  A    between atoms: _461  and  _462
REMARK  188  A    between atoms: _461  and  _464
REMARK  189  A    between atoms: _464  and  _465
REMARK  190  A    between atoms: _468  and  _470
REMARK  191  A    between atoms: _470  and  _471
REMARK  192  A    between atoms: _470  and  _473
REMARK  193  A    between atoms: _476  and  _478
REMARK  194  A    between atoms: _478  and  _479
REMARK  195  A    between atoms: _478  and  _481
REMARK  196  A    between atoms: _481  and  _482
REMARK  197  A    between atoms: _484  and  _486
REMARK  198  A    between atoms: _486  and  _487
REMARK  199  A    between atoms: _490  and  _492
REMARK  200  A    between atoms: _492  and  _493
REMARK  201  A    between atoms: _495  and  _497
REMARK  202  A    between atoms: _497  and  _498
REMARK  203  A    between atoms: _497  and  _500
REMARK  204  A    between atoms: _500  and  _501
REMARK  205  A    between atoms: _506  and  _508
REMARK  206  A    between atoms: _508  and  _509
REMARK  207  A    between atoms: _508  and  _511
REMARK  208  A    between atoms: _511  and  _512
REMARK  209  A    between atoms: _515  and  _517
REMARK  210  A    between atoms: _517  and  _518
REMARK  211  A    between atoms: _517  and  _520
REMARK  212  A    between atoms: _520  and  _521
REMARK  213  A    between atoms: _524  and  _526
REMARK  214  A    between atoms: _526  and  _527
REMARK  215  A    between atoms: _526  and  _529
REMARK  216  A    between atoms: _529  and  _530
REMARK  217  A    between atoms: _533  and  _535
REMARK  218  A    between atoms: _535  and  _536
REMARK  219  A    between atoms: _535  and  _538
REMARK  220  A    between atoms: _538  and  _539
REMARK  221  A    between atoms: _545  and  _547
REMARK  222  A    between atoms: _547  and  _548
REMARK  223  A    between atoms: _547  and  _550
REMARK  224  A    between atoms: _550  and  _551
REMARK  225  A    between atoms: _551  and  _552
REMARK  226  A    between atoms: _557  and  _559
REMARK  227  A    between atoms: _559  and  _560
REMARK  228  A    between atoms: _559  and  _562
REMARK  229  A    between atoms: _562  and  _563
REMARK  230  A    between atoms: _566  and  _568
REMARK  231  A    between atoms: _568  and  _569
REMARK  232  A    between atoms: _568  and  _571
REMARK  233  A    between atoms: _571  and  _572
REMARK  234  A    between atoms: _572  and  _573
REMARK  235  A    between atoms: _576  and  _578
REMARK  236  A    between atoms: _578  and  _579
REMARK  237  A    between atoms: _578  and  _581
REMARK  238  A    between atoms: _581  and  _582
REMARK  239  A    between atoms: _587  and  _589
REMARK  240  A    between atoms: _589  and  _590
REMARK  241  A    between atoms: _589  and  _592
REMARK  242  A    between atoms: _592  and  _593
REMARK  243  A    between atoms: _595  and  _597
REMARK  244  A    between atoms: _597  and  _598
REMARK  245  A    between atoms: _597  and  _600
REMARK  246  A    between atoms: _600  and  _601
REMARK  247  A    between atoms: _601  and  _602
REMARK  248  A    between atoms: _607  and  _609
REMARK  249  A    between atoms: _609  and  _610
REMARK  250  A    between atoms: _609  and  _612
REMARK  251  A    between atoms: _612  and  _613
REMARK  252  A    between atoms: _618  and  _619
REMARK  253  A    between atoms: _621  and  _623
REMARK  254  A    between atoms: _623  and  _624
REMARK  255  A    between atoms: _623  and  _626
REMARK  256  A    between atoms: _626  and  _627
REMARK  257  A    between atoms: _627  and  _628
REMARK  258  A    between atoms: _628  and  _629
REMARK  259  A    between atoms: _638  and  _640
REMARK  260  A    between atoms: _640  and  _641
REMARK  261  A    between atoms: _640  and  _643
REMARK  262  A    between atoms: _643  and  _644
REMARK  263  A    between atoms: _647  and  _649
REMARK  264  A    between atoms: _649  and  _650
REMARK  265  A    between atoms: _649  and  _652
REMARK  266  A    between atoms: _652  and  _653
REMARK  267  A    between atoms: _655  and  _657
REMARK  268  A    between atoms: _657  and  _658
REMARK  269  A    between atoms: _657  and  _660
REMARK  270  A    between atoms: _660  and  _661
REMARK  271  A    between atoms: _666  and  _668
REMARK  272  A    between atoms: _668  and  _669
REMARK  273  A    between atoms: _668  and  _671
REMARK  274  A    between atoms: _671  and  _672
REMARK  275  A    between atoms: _672  and  _673
REMARK  276  A    between atoms: _673  and  _674
REMARK  277  A    between atoms: _674  and  _675
REMARK  278  A    between atoms: _679  and  _681
REMARK  279  A    between atoms: _681  and  _682
REMARK  280  A    between atoms: _681  and  _684
REMARK  281  A    between atoms: _684  and  _685
REMARK  282  A    between atoms: _688  and  _690
REMARK  283  A    between atoms: _690  and  _691
REMARK  284  A    between atoms: _690  and  _693
REMARK  285  A    between atoms: _693  and  _694
REMARK  286  A    between atoms: _697  and  _699
REMARK  287  A    between atoms: _699  and  _700
REMARK  288  A    between atoms: _699  and  _702
REMARK  289  A    between atoms: _705  and  _707
REMARK  290  A    between atoms: _707  and  _708
REMARK  291  A    between atoms: _707  and  _710
REMARK  292  A    between atoms: _710  and  _711
REMARK                            x       y       z     vdW  Elec       q    Type
REMARK                         _______ _______ _______ _____ _____    ______ ____
ROOT
ATOM      1  CB  PHE A   1      67.931  11.837   2.319  0.00  0.00    +0.051 C 
ENDROOT
BRANCH   1   2
ATOM      2  CG  PHE A   1      66.662  11.014   2.196  0.00  0.00    -0.020 A 
ATOM      3  CD2 PHE A   1      66.224  10.201   3.236  0.00  0.00    -0.004 A 
ATOM      4  CE2 PHE A   1      65.057   9.450   3.118  0.00  0.00    -0.000 A 
ATOM      5  CZ  PHE A   1      64.294   9.543   1.951  0.00  0.00    -0.000 A 
ATOM      6  CE1 PHE A   1      64.703  10.345   0.927  0.00  0.00    -0.000 A 
ATOM      7  CD1 PHE A   1      65.895  11.077   1.037  0.00  0.00    -0.004 A 
ENDBRANCH   1   2
BRANCH   1   8
ATOM      8  CA  PHE A   1      68.990  11.226   3.247  0.00  0.00    +0.137 C 
BRANCH   8   9
ATOM      9  N   PHE A   1      68.652  11.379   4.678  0.00  0.00    -0.239 NA
ATOM     10  H   PHE A   1      67.809  11.925   4.948  0.00  0.00    +0.142 HD
ENDBRANCH   8   9
BRANCH   8  11
ATOM     11  C   PHE A   1      70.353  11.778   2.891  0.00  0.00    +0.224 C 
ATOM     12  O   PHE A   1      70.955  11.350   1.909  0.00  0.00    -0.287 OA
ENDBRANCH   8  11
ENDBRANCH   1   8
TORSDOF 4
REMARK  Name = ../refined-set-2016/1rjk/1rjk_pocket.pdb
REMARK  292 active torsions:
REMARK  status: ('A' for Active; 'I' for Inactive)
REMARK    1  A    between atoms: _1  and  _3
REMARK    2  A    between atoms: _3  and  _4
REMARK    3  A    between atoms: _3  and  _6
REMARK    4  A    between atoms: _6  and  _7
REMARK    5  A    between atoms: _10  and  _12
REMARK    6  A    between atoms: _12  and  _13
REMARK    7  A    between atoms: _12  and  _15
REMARK    8  A    between atoms: _15  and  _16
REMARK    9  A    between atoms: _21  and  _22
REMARK   10  A    between atoms: _24  and  _26
REMARK   11  A    between atoms: _26  and  _27
REMARK   12  A    between atoms: _26  and  _29
REMARK   13  A    between atoms: _29  and  _30
REMARK   14  A    between atoms: _34  and  _35
REMARK   15  A    between atoms: _40  and  _42
REMARK   16  A    between atoms: _42  and  _43
REMARK   17  A    between atoms: _42  and  _45
REMARK   18  A    between atoms: _45  and  _46
REMARK   19  A    between atoms: _51  and  _52
REMARK   20  A    between atoms: _54  and  _56
REMARK   21  A    between atoms: _56  and  _57
REMARK   22  A    between atoms: _56  and  _59
REMARK   23  A    between atoms: _59  and  _60
REMARK   24  A    between atoms: _66  and  _68
REMARK   25  A    between atoms: _68  and  _69
REMARK   26  A    between atoms: _68  and  _71
REMARK   27  A    between atoms: _71  and  _72
REMARK   28  A    between atoms: _78  and  _80
REMARK   29  A    between atoms: _80  and  _81
REMARK   30  A    between atoms: _80  and  _83
REMARK   31  A    between atoms: _83  and  _84
REMARK   32  A    between atoms: _84  and  _85
REMARK   33  A    between atoms: _85  and  _86
REMARK   34  A    between atoms: _95  and  _97
REMARK   35  A    between atoms: _97  and  _98
REMARK   36  A    between atoms: _97  and  _100
REMARK   37  A    between atoms: _100  and  _101
REMARK   38  A    between atoms: _104  and  _106
REMARK   39  A    between atoms: _106  and  _107
REMARK   40  A    between atoms: _106  and  _109
REMARK   41  A    between atoms: _109  and  _110
REMARK   42  A    between atoms: _110  and  _111
REMARK   43  A    between atoms: _113  and  _115
REMARK   44  A    between atoms: _115  and  _116
REMARK   45  A    between atoms: _115  and  _118
REMARK   46  A    between atoms: _118  and  _119
REMARK   47  A    between atoms: _123  and  _124
REMARK   48  A    between atoms: _129  and  _131
REMARK   49  A    between atoms: _131  and  _132
REMARK   50  A    between atoms: _131  and  _134
REMARK   51  A    between atoms: _134  and  _135
REMARK   52  A    between atoms: _140  and  _142
REMARK   53  A    between atoms: _142  and  _143
REMARK   54  A    between atoms: _142  and  _145
REMARK   55  A    between atoms: _145  and  _146
REMARK   56  A    between atoms: _149  and  _151
REMARK   57  A    between atoms: _151  and  _152
REMARK   58  A    between atoms: _155  and  _157
REMARK   59  A    between atoms: _157  and  _158
REMARK   60  A    between atoms: _157  and  _160
REMARK   61  A    between atoms: _160  and  _161
REMARK   62  A    between atoms: _164  and  _166
REMARK   63  A    between atoms: _166  and  _167
REMARK   64  A    between atoms: _166  and  _169
REMARK   65  A    between atoms: _169  and  _170
REMARK   66  A    between atoms: _173  and  _175
REMARK   67  A    between atoms: _175  and  _176
REMARK   68  A    between atoms: _175  and  _178
REMARK   69  A    between atoms: _181  and  _183
REMARK   70  A    between atoms: _183  and  _184
REMARK   71  A    between atoms: _183  and  _186
REMARK   72  A    between atoms: _186  and  _187
REMARK   73  A    between atoms: _189  and  _191
REMARK   74  A    between atoms: _191  and  _192
REMARK   75  A    between atoms: _191  and  _194
REMARK   76  A    between atoms: _194  and  _195
REMARK   77  A    between atoms: _200  and  _201
REMARK   78  A    between atoms: _203  and  _205
REMARK   79  A    between atoms: _205  and  _206
REMARK   80  A    between atoms: _205  and  _208
REMARK   81  A    between atoms: _208  and  _209
REMARK   82  A    between atoms: _211  and  _213
REMARK   83  A    between atoms: _213  and  _214
REMARK   84  A    between atoms: _213  and  _216
REMARK   85  A    between atoms: _216  and  _217
REMARK   86  A    between atoms: _220  and  _222
REMARK   87  A    between atoms: _222  and  _223
REMARK   88  A    between atoms: _222  and  _225
REMARK   89  A    between atoms: _225  and  _226
REMARK   90  A    between atoms: _226  and  _227
REMARK   91  A    between atoms: _227  and  _228
REMARK   92  A    between atoms: _228  and  _229
REMARK   93  A    between atoms: _233  and  _235
REMARK   94  A    between atoms: _235  and  _236
REMARK   95  A    between atoms: _235  and  _238
REMARK   96  A    between atoms: _241  and  _243
REMARK   97  A    between atoms: _243  and  _244
REMARK   98  A    between atoms: _247  and  _249
REMARK   99  A    between atoms: _249  and  _250
REMARK  100  A    between atoms: _249  and  _252
REMARK  101  A    between atoms: _252  and  _253
REMARK  102  A    between atoms: _256  and  _258
REMARK  103  A    between atoms: _258  and  _259
REMARK  104  A    between atoms: _258  and  _261
REMARK  105  A    between atoms: _261  and  _262
REMARK  106  A    between atoms: _262  and  _263
REMARK  107  A    between atoms: _266  and  _268
REMARK  108  A    between atoms: _268  and  _269
REMARK  109  A    between atoms: _268  and  _271
REMARK  110  A    between atoms: _274  and  _276
REMARK  111  A    between atoms: _276  and  _277
REMARK  112  A    between atoms: _276  and  _279
REMARK  113  A    between atoms: _279  and  _280
REMARK  114  A    between atoms: _283  and  _285
REMARK  115  A    between atoms: _285  and  _286
REMARK  116  A    between atoms: _285  and  _288
REMARK  117  A    between atoms: _288  and  _289
REMARK  118  A    between atoms: _289  and  _290
REMARK  119  A    between atoms: _292  and  _294
REMARK  120  A    between atoms: _294  and  _295
REMARK  121  A    between atoms: _294  and  _297
REMARK  122  A    between atoms: _297  and  _298
REMARK  123  A    between atoms: _301  and  _303
REMARK  124  A    between atoms: _303  and  _304
REMARK  125  A    between atoms: _303  and  _306
REMARK  126  A    between atoms: _306  and  _307
REMARK  127  A    between atoms: _307  and  _308
REMARK  128  A    between atoms: _308  and  _309
REMARK  129  A    between atoms: _318  and  _320
REMARK  130  A    between atoms: _320  and  _321
REMARK  131  A    between atoms: _320  and  _323
REMARK  132  A    between atoms: _323  and  _324
REMARK  133  A    between atoms: _326  and  _328
REMARK  134  A    between atoms: _328  and  _329
REMARK  135  A    between atoms: _328  and  _331
REMARK  136  A    between atoms: _331  and  _332
REMARK  137  A    between atoms: _337  and  _339
REMARK  138  A    between atoms: _339  and  _340
REMARK  139  A    between atoms: _339  and  _342
REMARK  140  A    between atoms: _342  and  _343
REMARK  141  A    between atoms: _343  and  _344
REMARK  142  A    between atoms: _349  and  _351
REMARK  143  A    between atoms: _351  and  _352
REMARK  144  A    between atoms: _351  and  _354
REMARK  145  A    between atoms: _354  and  _355
REMARK  146  A    between atoms: _357  and  _359
REMARK  147  A    between atoms: _359  and  _360
REMARK  148  A    between atoms: _359  and  _362
REMARK  149  A    between atoms: _362  and  _363
REMARK  150  A    between atoms: _369  and  _371
REMARK  151  A    between atoms: _371  and  _372
REMARK  152  A    between atoms: _371  and  _374
REMARK  153  A    between atoms: _374  and  _375
REMARK  154  A    between atoms: _377  and  _379
REMARK  155  A    between atoms: _379  and  _380
REMARK  156  A    between atoms: _379  and  _382
REMARK  157  A    between atoms: _382  and  _383
REMARK  158  A    between atoms: _393  and  _395
REMARK  159  A    between atoms: _395  and  _396
REMARK  160  A    between atoms: _395  and  _398
REMARK  161  A    between atoms: _398  and  _399
REMARK  162  A    between atoms: _402  and  _404
REMARK  163  A    between atoms: _404  and  _405
REMARK  164  A    between atoms: _404  and  _407
REMARK  165  A    between atoms: _409  and  _411
REMARK  166  A    between atoms: _411  and  _412
REMARK  167  A    between atoms: _411  and  _414
REMARK  168  A    between atoms: _414  and  _415
REMARK  169  A    between atoms: _420  and  _421
REMARK  170  A    between atoms: _423  and  _425
REMARK  171  A    between atoms: _425  and  _426
REMARK  172  A    between atoms: _425  and  _428
REMARK  173  A    between atoms: _428  and  _429
REMARK  174  A    between atoms: _429  and  _430
REMARK  175  A    between atoms: _430  and  _431
REMARK  176  A    between atoms: _431  and  _432
REMARK  177  A    between atoms: _436  and  _438
REMARK  178  A    between atoms: _438  and  _439
REMARK  179  A    between atoms: _438  and  _441
REMARK  180  A    between atoms: _441  and  _442
REMARK  181  A    between atoms: _447  and  _448
REMARK  182  A    between atoms: _450  and  _452
REMARK  183  A    between atoms: _452  and  _453
REMARK  184  A    between atoms: _452  and  _455
REMARK  185  A    between atoms: _455  and  _456
REMARK  186  A    between atoms: _459  and  _461
REMARK  187  A    between atoms: _461  and  _462
REMARK  188  A    between atoms: _461  and  _464
REMARK  189  A    between atoms: _464  and  _465
REMARK  190  A    between atoms: _468  and  _470
REMARK  191  A    between atoms: _470  and  _471
REMARK  192  A    between atoms: _470  and  _473
REMARK  193  A    between atoms: _476  and  _478
REMARK  194  A    between atoms: _478  and  _479
REMARK  195  A    between atoms: _478  and  _481
REMARK  196  A    between atoms: _481  and  _482
REMARK  197  A    between atoms: _484  and  _486
REMARK  198  A    between atoms: _486  and  _487
REMARK  199  A    between atoms: _490  and  _492
REMARK  200  A    between atoms: _492  and  _493
REMARK  201  A    between atoms: _495  and  _497
REMARK  202  A    between atoms: _497  and  _498
REMARK  203  A    between atoms: _497  and  _500
REMARK  204  A    between atoms: _500  and  _501
REMARK  205  A    between atoms: _506  and  _508
REMARK  206  A    between atoms: _508  and  _509
REMARK  207  A    between atoms: _508  and  _511
REMARK  208  A    between atoms: _511  and  _512
REMARK  209  A    between atoms: _515  and  _517
REMARK  210  A    between atoms: _517  and  _518
REMARK  211  A    between atoms: _517  and  _520
REMARK  212  A    between atoms: _520  and  _521
REMARK  213  A    between atoms: _524  and  _526
REMARK  214  A    between atoms: _526  and  _527
REMARK  215  A    between atoms: _526  and  _529
REMARK  216  A    between atoms: _529  and  _530
REMARK  217  A    between atoms: _533  and  _535
REMARK  218  A    between atoms: _535  and  _536
REMARK  219  A    between atoms: _535  and  _538
REMARK  220  A    between atoms: _538  and  _539
REMARK  221  A    between atoms: _545  and  _547
REMARK  222  A    between atoms: _547  and  _548
REMARK  223  A    between atoms: _547  and  _550
REMARK  224  A    between atoms: _550  and  _551
REMARK  225  A    between atoms: _551  and  _552
REMARK  226  A    between atoms: _557  and  _559
REMARK  227  A    between atoms: _559  and  _560
REMARK  228  A    between atoms: _559  and  _562
REMARK  229  A    between atoms: _562  and  _563
REMARK  230  A    between atoms: _566  and  _568
REMARK  231  A    between atoms: _568  and  _569
REMARK  232  A    between atoms: _568  and  _571
REMARK  233  A    between atoms: _571  and  _572
REMARK  234  A    between atoms: _572  and  _573
REMARK  235  A    between atoms: _576  and  _578
REMARK  236  A    between atoms: _578  and  _579
REMARK  237  A    between atoms: _578  and  _581
REMARK  238  A    between atoms: _581  and  _582
REMARK  239  A    between atoms: _587  and  _589
REMARK  240  A    between atoms: _589  and  _590
REMARK  241  A    between atoms: _589  and  _592
REMARK  242  A    between atoms: _592  and  _593
REMARK  243  A    between atoms: _595  and  _597
REMARK  244  A    between atoms: _597  and  _598
REMARK  245  A    between atoms: _597  and  _600
REMARK  246  A    between atoms: _600  and  _601
REMARK  247  A    between atoms: _601  and  _602
REMARK  248  A    between atoms: _607  and  _609
REMARK  249  A    between atoms: _609  and  _610
REMARK  250  A    between atoms: _609  and  _612
REMARK  251  A    between atoms: _612  and  _613
REMARK  252  A    between atoms: _618  and  _619
REMARK  253  A    between atoms: _621  and  _623
REMARK  254  A    between atoms: _623  and  _624
REMARK  255  A    between atoms: _623  and  _626
REMARK  256  A    between atoms: _626  and  _627
REMARK  257  A    between atoms: _627  and  _628
REMARK  258  A    between atoms: _628  and  _629
REMARK  259  A    between atoms: _638  and  _640
REMARK  260  A    between atoms: _640  and  _641
REMARK  261  A    between atoms: _640  and  _643
REMARK  262  A    between atoms: _643  and  _644
REMARK  263  A    between atoms: _647  and  _649
REMARK  264  A    between atoms: _649  and  _650
REMARK  265  A    between atoms: _649  and  _652
REMARK  266  A    between atoms: _652  and  _653
REMARK  267  A    between atoms: _655  and  _657
REMARK  268  A    between atoms: _657  and  _658
REMARK  269  A    between atoms: _657  and  _660
REMARK  270  A    between atoms: _660  and  _661
REMARK  271  A    between atoms: _666  and  _668
REMARK  272  A    between atoms: _668  and  _669
REMARK  273  A    between atoms: _668  and  _671
REMARK  274  A    between atoms: _671  and  _672
REMARK  275  A    between atoms: _672  and  _673
REMARK  276  A    between atoms: _673  and  _674
REMARK  277  A    between atoms: _674  and  _675
REMARK  278  A    between atoms: _679  and  _681
REMARK  279  A    between atoms: _681  and  _682
REMARK  280  A    between atoms: _681  and  _684
REMARK  281  A    between atoms: _684  and  _685
REMARK  282  A    between atoms: _688  and  _690
REMARK  283  A    between atoms: _690  and  _691
REMARK  284  A    between atoms: _690  and  _693
REMARK  285  A    between atoms: _693  and  _694
REMARK  286  A    between atoms: _697  and  _699
REMARK  287  A    between atoms: _699  and  _700
REMARK  288  A    between atoms: _699  and  _702
REMARK  289  A    between atoms: _705  and  _707
REMARK  290  A    between atoms: _707  and  _708
REMARK  291  A    between atoms: _707  and  _710
REMARK  292  A    between atoms: _710  and  _711
REMARK                            x       y       z     vdW  Elec       q    Type
REMARK                         _______ _______ _______ _____ _____    ______ ____
ROOT
ATOM      1  CB  PHE A   1      71.842   8.398   0.535  0.00  0.00    +0.051 C 
ENDROOT
BRANCH   1   2
ATOM      2  CG  PHE A   1      70.664   7.992   1.401  0.00  0.00    -0.020 A 
ATOM      3  CD2 PHE A   1      70.841   7.396   2.655  0.00  0.00    -0.004 A 
ATOM      4  CE2 PHE A   1      69.736   7.042   3.445  0.00  0.00    -0.000 A 
ATOM      5  CZ  PHE A   1      68.440   7.253   2.956  0.00  0.00    -0.000 A 
ATOM      6  CE1 PHE A   1      68.261   7.839   1.694  0.00  0.00    -0.000 A 
ATOM      7  CD1 PHE A   1      69.381   8.207   0.934  0.00  0.00    -0.004 A 
ENDBRANCH   1   2
BRANCH   1   8
ATOM      8  CA  PHE A   1      73.196   8.419   1.252  0.00  0.00    +0.137 C 
BRANCH   8   9
ATOM      9  N   PHE A   1      73.166   9.271   2.451  0.00  0.00    -0.239 NA
ATOM     10  H   PHE A   1      72.379   9.937   2.585  0.00  0.00    +0.142 HD
ENDBRANCH   8   9
BRANCH   8  11
ATOM     11  C   PHE A   1      74.263   8.884   0.250  0.00  0.00    +0.224 C 
ATOM     12  O   PHE A   1      74.561  10.081   0.160  0.00  0.00    -0.287 OA
ENDBRANCH   8  11
ENDBRANCH   1   8
TORSDOF 4
REMARK  Name = ../refined-set-2016/1rjk/1rjk_pocket.pdb
REMARK  292 active torsions:
REMARK  status: ('A' for Active; 'I' for Inactive)
REMARK    1  A    between atoms: _1  and  _3
REMARK    2  A    between atoms: _3  and  _4
REMARK    3  A    between atoms: _3  and  _6
REMARK    4  A    between atoms: _6  and  _7
REMARK    5  A    between atoms: _10  and  _12
REMARK    6  A    between atoms: _12  and  _13
REMARK    7  A    between atoms: _12  and  _15
REMARK    8  A    between atoms: _15  and  _16
REMARK    9  A    between atoms: _21  and  _22
REMARK   10  A    between atoms: _24  and  _26
REMARK   11  A    between atoms: _26  and  _27
REMARK   12  A    between atoms: _26  and  _29
REMARK   13  A    between atoms: _29  and  _30
REMARK   14  A    between atoms: _34  and  _35
REMARK   15  A    between atoms: _40  and  _42
REMARK   16  A    between atoms: _42  and  _43
REMARK   17  A    between atoms: _42  and  _45
REMARK   18  A    between atoms: _45  and  _46
REMARK   19  A    between atoms: _51  and  _52
REMARK   20  A    between atoms: _54  and  _56
REMARK   21  A    between atoms: _56  and  _57
REMARK   22  A    between atoms: _56  and  _59
REMARK   23  A    between atoms: _59  and  _60
REMARK   24  A    between atoms: _66  and  _68
REMARK   25  A    between atoms: _68  and  _69
REMARK   26  A    between atoms: _68  and  _71
REMARK   27  A    between atoms: _71  and  _72
REMARK   28  A    between atoms: _78  and  _80
REMARK   29  A    between atoms: _80  and  _81
REMARK   30  A    between atoms: _80  and  _83
REMARK   31  A    between atoms: _83  and  _84
REMARK   32  A    between atoms: _84  and  _85
REMARK   33  A    between atoms: _85  and  _86
REMARK   34  A    between atoms: _95  and  _97
REMARK   35  A    between atoms: _97  and  _98
REMARK   36  A    between atoms: _97  and  _100
REMARK   37  A    between atoms: _100  and  _101
REMARK   38  A    between atoms: _104  and  _106
REMARK   39  A    between atoms: _106  and  _107
REMARK   40  A    between atoms: _106  and  _109
REMARK   41  A    between atoms: _109  and  _110
REMARK   42  A    between atoms: _110  and  _111
REMARK   43  A    between atoms: _113  and  _115
REMARK   44  A    between atoms: _115  and  _116
REMARK   45  A    between atoms: _115  and  _118
REMARK   46  A    between atoms: _118  and  _119
REMARK   47  A    between atoms: _123  and  _124
REMARK   48  A    between atoms: _129  and  _131
REMARK   49  A    between atoms: _131  and  _132
REMARK   50  A    between atoms: _131  and  _134
REMARK   51  A    between atoms: _134  and  _135
REMARK   52  A    between atoms: _140  and  _142
REMARK   53  A    between atoms: _142  and  _143
REMARK   54  A    between atoms: _142  and  _145
REMARK   55  A    between atoms: _145  and  _146
REMARK   56  A    between atoms: _149  and  _151
REMARK   57  A    between atoms: _151  and  _152
REMARK   58  A    between atoms: _155  and  _157
REMARK   59  A    between atoms: _157  and  _158
REMARK   60  A    between atoms: _157  and  _160
REMARK   61  A    between atoms: _160  and  _161
REMARK   62  A    between atoms: _164  and  _166
REMARK   63  A    between atoms: _166  and  _167
REMARK   64  A    between atoms: _166  and  _169
REMARK   65  A    between atoms: _169  and  _170
REMARK   66  A    between atoms: _173  and  _175
REMARK   67  A    between atoms: _175  and  _176
REMARK   68  A    between atoms: _175  and  _178
REMARK   69  A    between atoms: _181  and  _183
REMARK   70  A    between atoms: _183  and  _184
REMARK   71  A    between atoms: _183  and  _186
REMARK   72  A    between atoms: _186  and  _187
REMARK   73  A    between atoms: _189  and  _191
REMARK   74  A    between atoms: _191  and  _192
REMARK   75  A    between atoms: _191  and  _194
REMARK   76  A    between atoms: _194  and  _195
REMARK   77  A    between atoms: _200  and  _201
REMARK   78  A    between atoms: _203  and  _205
REMARK   79  A    between atoms: _205  and  _206
REMARK   80  A    between atoms: _205  and  _208
REMARK   81  A    between atoms: _208  and  _209
REMARK   82  A    between atoms: _211  and  _213
REMARK   83  A    between atoms: _213  and  _214
REMARK   84  A    between atoms: _213  and  _216
REMARK   85  A    between atoms: _216  and  _217
REMARK   86  A    between atoms: _220  and  _222
REMARK   87  A    between atoms: _222  and  _223
REMARK   88  A    between atoms: _222  and  _225
REMARK   89  A    between atoms: _225  and  _226
REMARK   90  A    between atoms: _226  and  _227
REMARK   91  A    between atoms: _227  and  _228
REMARK   92  A    between atoms: _228  and  _229
REMARK   93  A    between atoms: _233  and  _235
REMARK   94  A    between atoms: _235  and  _236
REMARK   95  A    between atoms: _235  and  _238
REMARK   96  A    between atoms: _241  and  _243
REMARK   97  A    between atoms: _243  and  _244
REMARK   98  A    between atoms: _247  and  _249
REMARK   99  A    between atoms: _249  and  _250
REMARK  100  A    between atoms: _249  and  _252
REMARK  101  A    between atoms: _252  and  _253
REMARK  102  A    between atoms: _256  and  _258
REMARK  103  A    between atoms: _258  and  _259
REMARK  104  A    between atoms: _258  and  _261
REMARK  105  A    between atoms: _261  and  _262
REMARK  106  A    between atoms: _262  and  _263
REMARK  107  A    between atoms: _266  and  _268
REMARK  108  A    between atoms: _268  and  _269
REMARK  109  A    between atoms: _268  and  _271
REMARK  110  A    between atoms: _274  and  _276
REMARK  111  A    between atoms: _276  and  _277
REMARK  112  A    between atoms: _276  and  _279
REMARK  113  A    between atoms: _279  and  _280
REMARK  114  A    between atoms: _283  and  _285
REMARK  115  A    between atoms: _285  and  _286
REMARK  116  A    between atoms: _285  and  _288
REMARK  117  A    between atoms: _288  and  _289
REMARK  118  A    between atoms: _289  and  _290
REMARK  119  A    between atoms: _292  and  _294
REMARK  120  A    between atoms: _294  and  _295
REMARK  121  A    between atoms: _294  and  _297
REMARK  122  A    between atoms: _297  and  _298
REMARK  123  A    between atoms: _301  and  _303
REMARK  124  A    between atoms: _303  and  _304
REMARK  125  A    between atoms: _303  and  _306
REMARK  126  A    between atoms: _306  and  _307
REMARK  127  A    between atoms: _307  and  _308
REMARK  128  A    between atoms: _308  and  _309
REMARK  129  A    between atoms: _318  and  _320
REMARK  130  A    between atoms: _320  and  _321
REMARK  131  A    between atoms: _320  and  _323
REMARK  132  A    between atoms: _323  and  _324
REMARK  133  A    between atoms: _326  and  _328
REMARK  134  A    between atoms: _328  and  _329
REMARK  135  A    between atoms: _328  and  _331
REMARK  136  A    between atoms: _331  and  _332
REMARK  137  A    between atoms: _337  and  _339
REMARK  138  A    between atoms: _339  and  _340
REMARK  139  A    between atoms: _339  and  _342
REMARK  140  A    between atoms: _342  and  _343
REMARK  141  A    between atoms: _343  and  _344
REMARK  142  A    between atoms: _349  and  _351
REMARK  143  A    between atoms: _351  and  _352
REMARK  144  A    between atoms: _351  and  _354
REMARK  145  A    between atoms: _354  and  _355
REMARK  146  A    between atoms: _357  and  _359
REMARK  147  A    between atoms: _359  and  _360
REMARK  148  A    between atoms: _359  and  _362
REMARK  149  A    between atoms: _362  and  _363
REMARK  150  A    between atoms: _369  and  _371
REMARK  151  A    between atoms: _371  and  _372
REMARK  152  A    between atoms: _371  and  _374
REMARK  153  A    between atoms: _374  and  _375
REMARK  154  A    between atoms: _377  and  _379
REMARK  155  A    between atoms: _379  and  _380
REMARK  156  A    between atoms: _379  and  _382
REMARK  157  A    between atoms: _382  and  _383
REMARK  158  A    between atoms: _393  and  _395
REMARK  159  A    between atoms: _395  and  _396
REMARK  160  A    between atoms: _395  and  _398
REMARK  161  A    between atoms: _398  and  _399
REMARK  162  A    between atoms: _402  and  _404
REMARK  163  A    between atoms: _404  and  _405
REMARK  164  A    between atoms: _404  and  _407
REMARK  165  A    between atoms: _409  and  _411
REMARK  166  A    between atoms: _411  and  _412
REMARK  167  A    between atoms: _411  and  _414
REMARK  168  A    between atoms: _414  and  _415
REMARK  169  A    between atoms: _420  and  _421
REMARK  170  A    between atoms: _423  and  _425
REMARK  171  A    between atoms: _425  and  _426
REMARK  172  A    between atoms: _425  and  _428
REMARK  173  A    between atoms: _428  and  _429
REMARK  174  A    between atoms: _429  and  _430
REMARK  175  A    between atoms: _430  and  _431
REMARK  176  A    between atoms: _431  and  _432
REMARK  177  A    between atoms: _436  and  _438
REMARK  178  A    between atoms: _438  and  _439
REMARK  179  A    between atoms: _438  and  _441
REMARK  180  A    between atoms: _441  and  _442
REMARK  181  A    between atoms: _447  and  _448
REMARK  182  A    between atoms: _450  and  _452
REMARK  183  A    between atoms: _452  and  _453
REMARK  184  A    between atoms: _452  and  _455
REMARK  185  A    between atoms: _455  and  _456
REMARK  186  A    between atoms: _459  and  _461
REMARK  187  A    between atoms: _461  and  _462
REMARK  188  A    between atoms: _461  and  _464
REMARK  189  A    between atoms: _464  and  _465
REMARK  190  A    between atoms: _468  and  _470
REMARK  191  A    between atoms: _470  and  _471
REMARK  192  A    between atoms: _470  and  _473
REMARK  193  A    between atoms: _476  and  _478
REMARK  194  A    between atoms: _478  and  _479
REMARK  195  A    between atoms: _478  and  _481
REMARK  196  A    between atoms: _481  and  _482
REMARK  197  A    between atoms: _484  and  _486
REMARK  198  A    between atoms: _486  and  _487
REMARK  199  A    between atoms: _490  and  _492
REMARK  200  A    between atoms: _492  and  _493
REMARK  201  A    between atoms: _495  and  _497
REMARK  202  A    between atoms: _497  and  _498
REMARK  203  A    between atoms: _497  and  _500
REMARK  204  A    between atoms: _500  and  _501
REMARK  205  A    between atoms: _506  and  _508
REMARK  206  A    between atoms: _508  and  _509
REMARK  207  A    between atoms: _508  and  _511
REMARK  208  A    between atoms: _511  and  _512
REMARK  209  A    between atoms: _515  and  _517
REMARK  210  A    between atoms: _517  and  _518
REMARK  211  A    between atoms: _517  and  _520
REMARK  212  A    between atoms: _520  and  _521
REMARK  213  A    between atoms: _524  and  _526
REMARK  214  A    between atoms: _526  and  _527
REMARK  215  A    between atoms: _526  and  _529
REMARK  216  A    between atoms: _529  and  _530
REMARK  217  A    between atoms: _533  and  _535
REMARK  218  A    between atoms: _535  and  _536
REMARK  219  A    between atoms: _535  and  _538
REMARK  220  A    between atoms: _538  and  _539
REMARK  221  A    between atoms: _545  and  _547
REMARK  222  A    between atoms: _547  and  _548
REMARK  223  A    between atoms: _547  and  _550
REMARK  224  A    between atoms: _550  and  _551
REMARK  225  A    between atoms: _551  and  _552
REMARK  226  A    between atoms: _557  and  _559
REMARK  227  A    between atoms: _559  and  _560
REMARK  228  A    between atoms: _559  and  _562
REMARK  229  A    between atoms: _562  and  _563
REMARK  230  A    between atoms: _566  and  _568
REMARK  231  A    between atoms: _568  and  _569
REMARK  232  A    between atoms: _568  and  _571
REMARK  233  A    between atoms: _571  and  _572
REMARK  234  A    between atoms: _572  and  _573
REMARK  235  A    between atoms: _576  and  _578
REMARK  236  A    between atoms: _578  and  _579
REMARK  237  A    between atoms: _578  and  _581
REMARK  238  A    between atoms: _581  and  _582
REMARK  239  A    between atoms: _587  and  _589
REMARK  240  A    between atoms: _589  and  _590
REMARK  241  A    between atoms: _589  and  _592
REMARK  242  A    between atoms: _592  and  _593
REMARK  243  A    between atoms: _595  and  _597
REMARK  244  A    between atoms: _597  and  _598
REMARK  245  A    between atoms: _597  and  _600
REMARK  246  A    between atoms: _600  and  _601
REMARK  247  A    between atoms: _601  and  _602
REMARK  248  A    between atoms: _607  and  _609
REMARK  249  A    between atoms: _609  and  _610
REMARK  250  A    between atoms: _609  and  _612
REMARK  251  A    between atoms: _612  and  _613
REMARK  252  A    between atoms: _618  and  _619
REMARK  253  A    between atoms: _621  and  _623
REMARK  254  A    between atoms: _623  and  _624
REMARK  255  A    between atoms: _623  and  _626
REMARK  256  A    between atoms: _626  and  _627
REMARK  257  A    between atoms: _627  and  _628
REMARK  258  A    between atoms: _628  and  _629
REMARK  259  A    between atoms: _638  and  _640
REMARK  260  A    between atoms: _640  and  _641
REMARK  261  A    between atoms: _640  and  _643
REMARK  262  A    between atoms: _643  and  _644
REMARK  263  A    between atoms: _647  and  _649
REMARK  264  A    between atoms: _649  and  _650
REMARK  265  A    between atoms: _649  and  _652
REMARK  266  A    between atoms: _652  and  _653
REMARK  267  A    between atoms: _655  and  _657
REMARK  268  A    between atoms: _657  and  _658
REMARK  269  A    between atoms: _657  and  _660
REMARK  270  A    between atoms: _660  and  _661
REMARK  271  A    between atoms: _666  and  _668
REMARK  272  A    between atoms: _668  and  _669
REMARK  273  A    between atoms: _668  and  _671
REMARK  274  A    between atoms: _671  and  _672
REMARK  275  A    between atoms: _672  and  _673
REMARK  276  A    between atoms: _673  and  _674
REMARK  277  A    between atoms: _674  and  _675
REMARK  278  A    between atoms: _679  and  _681
REMARK  279  A    between atoms: _681  and  _682
REMARK  280  A    between atoms: _681  and  _684
REMARK  281  A    between atoms: _684  and  _685
REMARK  282  A    between atoms: _688  and  _690
REMARK  283  A    between atoms: _690  and  _691
REMARK  284  A    between atoms: _690  and  _693
REMARK  285  A    between atoms: _693  and  _694
REMARK  286  A    between atoms: _697  and  _699
REMARK  287  A    between atoms: _699  and  _700
REMARK  288  A    between atoms: _699  and  _702
REMARK  289  A    between atoms: _705  and  _707
REMARK  290  A    between atoms: _707  and  _708
REMARK  291  A    between atoms: _707  and  _710
REMARK  292  A    between atoms: _710  and  _711
REMARK                            x       y       z     vdW  Elec       q    Type
REMARK                         _______ _______ _______ _____ _____    ______ ____
ROOT
ATOM      1  NE  ARG A   1      67.465  13.648  -9.427  0.00  0.00    -0.265 N 
ATOM      2  CZ  ARG A   1      67.616  13.771  -8.119  0.00  0.00    +0.342 C 
ATOM      3  NH2 ARG A   1      66.773  13.153  -7.308  0.00  0.00    -0.292 N 
ATOM      4 HH21 ARG A   1      66.882  13.243  -6.278  0.00  0.00    +0.255 HD
ATOM      5 HH22 ARG A   1      66.001  12.577  -7.701  0.00  0.00    +0.255 HD
ATOM      6  NH1 ARG A   1      68.597  14.522  -7.616  0.00  0.00    -0.292 N 
ATOM      7 HH11 ARG A   1      68.707  14.612  -6.586  0.00  0.00    +0.255 HD
ATOM      8 HH12 ARG A   1      69.252  15.018  -8.254  0.00  0.00    +0.255 HD
ATOM      9  HE  ARG A   1      66.688  13.048  -9.772  0.00  0.00    +0.259 HD
ENDROOT
BRANCH   1  10
ATOM     10  CD  ARG A   1      68.316  14.298 -10.420  0.00  0.00    +0.174 C 
BRANCH  10  11
ATOM     11  CG  ARG A   1      69.276  13.342 -11.054  0.00  0.00    +0.045 C 
BRANCH  11  12
ATOM     12  CB  ARG A   1      69.992  13.922 -12.253  0.00  0.00    +0.029 C 
BRANCH  12  13
ATOM     13  CA  ARG A   1      71.253  13.166 -12.667  0.00  0.00    +0.133 C 
BRANCH  13  14
ATOM     14  N   ARG A   1      72.135  13.006 -11.529  0.00  0.00    -0.239 NA
ATOM     15  H   ARG A   1      72.560  13.859 -11.114  0.00  0.00    +0.142 HD
ENDBRANCH  13  14
BRANCH  13  16
ATOM     16  C   ARG A   1      72.047  13.978 -13.689  0.00  0.00    +0.224 C 
ATOM     17  O   ARG A   1      72.249  15.186 -13.523  0.00  0.00    -0.287 OA
ENDBRANCH  13  16
ENDBRANCH  12  13
ENDBRANCH  11  12
ENDBRANCH  10  11
ENDBRANCH   1  10
TORSDOF 6
REMARK  Name = ../refined-set-2016/1rjk/1rjk_pocket.pdb
REMARK  292 active torsions:
REMARK  status: ('A' for Active; 'I' for Inactive)
REMARK    1  A    between atoms: _1  and  _3
REMARK    2  A    between atoms: _3  and  _4
REMARK    3  A    between atoms: _3  and  _6
REMARK    4  A    between atoms: _6  and  _7
REMARK    5  A    between atoms: _10  and  _12
REMARK    6  A    between atoms: _12  and  _13
REMARK    7  A    between atoms: _12  and  _15
REMARK    8  A    between atoms: _15  and  _16
REMARK    9  A    between atoms: _21  and  _22
REMARK   10  A    between atoms: _24  and  _26
REMARK   11  A    between atoms: _26  and  _27
REMARK   12  A    between atoms: _26  and  _29
REMARK   13  A    between atoms: _29  and  _30
REMARK   14  A    between atoms: _34  and  _35
REMARK   15  A    between atoms: _40  and  _42
REMARK   16  A    between atoms: _42  and  _43
REMARK   17  A    between atoms: _42  and  _45
REMARK   18  A    between atoms: _45  and  _46
REMARK   19  A    between atoms: _51  and  _52
REMARK   20  A    between atoms: _54  and  _56
REMARK   21  A    between atoms: _56  and  _57
REMARK   22  A    between atoms: _56  and  _59
REMARK   23  A    between atoms: _59  and  _60
REMARK   24  A    between atoms: _66  and  _68
REMARK   25  A    between atoms: _68  and  _69
REMARK   26  A    between atoms: _68  and  _71
REMARK   27  A    between atoms: _71  and  _72
REMARK   28  A    between atoms: _78  and  _80
REMARK   29  A    between atoms: _80  and  _81
REMARK   30  A    between atoms: _80  and  _83
REMARK   31  A    between atoms: _83  and  _84
REMARK   32  A    between atoms: _84  and  _85
REMARK   33  A    between atoms: _85  and  _86
REMARK   34  A    between atoms: _95  and  _97
REMARK   35  A    between atoms: _97  and  _98
REMARK   36  A    between atoms: _97  and  _100
REMARK   37  A    between atoms: _100  and  _101
REMARK   38  A    between atoms: _104  and  _106
REMARK   39  A    between atoms: _106  and  _107
REMARK   40  A    between atoms: _106  and  _109
REMARK   41  A    between atoms: _109  and  _110
REMARK   42  A    between atoms: _110  and  _111
REMARK   43  A    between atoms: _113  and  _115
REMARK   44  A    between atoms: _115  and  _116
REMARK   45  A    between atoms: _115  and  _118
REMARK   46  A    between atoms: _118  and  _119
REMARK   47  A    between atoms: _123  and  _124
REMARK   48  A    between atoms: _129  and  _131
REMARK   49  A    between atoms: _131  and  _132
REMARK   50  A    between atoms: _131  and  _134
REMARK   51  A    between atoms: _134  and  _135
REMARK   52  A    between atoms: _140  and  _142
REMARK   53  A    between atoms: _142  and  _143
REMARK   54  A    between atoms: _142  and  _145
REMARK   55  A    between atoms: _145  and  _146
REMARK   56  A    between atoms: _149  and  _151
REMARK   57  A    between atoms: _151  and  _152
REMARK   58  A    between atoms: _155  and  _157
REMARK   59  A    between atoms: _157  and  _158
REMARK   60  A    between atoms: _157  and  _160
REMARK   61  A    between atoms: _160  and  _161
REMARK   62  A    between atoms: _164  and  _166
REMARK   63  A    between atoms: _166  and  _167
REMARK   64  A    between atoms: _166  and  _169
REMARK   65  A    between atoms: _169  and  _170
REMARK   66  A    between atoms: _173  and  _175
REMARK   67  A    between atoms: _175  and  _176
REMARK   68  A    between atoms: _175  and  _178
REMARK   69  A    between atoms: _181  and  _183
REMARK   70  A    between atoms: _183  and  _184
REMARK   71  A    between atoms: _183  and  _186
REMARK   72  A    between atoms: _186  and  _187
REMARK   73  A    between atoms: _189  and  _191
REMARK   74  A    between atoms: _191  and  _192
REMARK   75  A    between atoms: _191  and  _194
REMARK   76  A    between atoms: _194  and  _195
REMARK   77  A    between atoms: _200  and  _201
REMARK   78  A    between atoms: _203  and  _205
REMARK   79  A    between atoms: _205  and  _206
REMARK   80  A    between atoms: _205  and  _208
REMARK   81  A    between atoms: _208  and  _209
REMARK   82  A    between atoms: _211  and  _213
REMARK   83  A    between atoms: _213  and  _214
REMARK   84  A    between atoms: _213  and  _216
REMARK   85  A    between atoms: _216  and  _217
REMARK   86  A    between atoms: _220  and  _222
REMARK   87  A    between atoms: _222  and  _223
REMARK   88  A    between atoms: _222  and  _225
REMARK   89  A    between atoms: _225  and  _226
REMARK   90  A    between atoms: _226  and  _227
REMARK   91  A    between atoms: _227  and  _228
REMARK   92  A    between atoms: _228  and  _229
REMARK   93  A    between atoms: _233  and  _235
REMARK   94  A    between atoms: _235  and  _236
REMARK   95  A    between atoms: _235  and  _238
REMARK   96  A    between atoms: _241  and  _243
REMARK   97  A    between atoms: _243  and  _244
REMARK   98  A    between atoms: _247  and  _249
REMARK   99  A    between atoms: _249  and  _250
REMARK  100  A    between atoms: _249  and  _252
REMARK  101  A    between atoms: _252  and  _253
REMARK  102  A    between atoms: _256  and  _258
REMARK  103  A    between atoms: _258  and  _259
REMARK  104  A    between atoms: _258  and  _261
REMARK  105  A    between atoms: _261  and  _262
REMARK  106  A    between atoms: _262  and  _263
REMARK  107  A    between atoms: _266  and  _268
REMARK  108  A    between atoms: _268  and  _269
REMARK  109  A    between atoms: _268  and  _271
REMARK  110  A    between atoms: _274  and  _276
REMARK  111  A    between atoms: _276  and  _277
REMARK  112  A    between atoms: _276  and  _279
REMARK  113  A    between atoms: _279  and  _280
REMARK  114  A    between atoms: _283  and  _285
REMARK  115  A    between atoms: _285  and  _286
REMARK  116  A    between atoms: _285  and  _288
REMARK  117  A    between atoms: _288  and  _289
REMARK  118  A    between atoms: _289  and  _290
REMARK  119  A    between atoms: _292  and  _294
REMARK  120  A    between atoms: _294  and  _295
REMARK  121  A    between atoms: _294  and  _297
REMARK  122  A    between atoms: _297  and  _298
REMARK  123  A    between atoms: _301  and  _303
REMARK  124  A    between atoms: _303  and  _304
REMARK  125  A    between atoms: _303  and  _306
REMARK  126  A    between atoms: _306  and  _307
REMARK  127  A    between atoms: _307  and  _308
REMARK  128  A    between atoms: _308  and  _309
REMARK  129  A    between atoms: _318  and  _320
REMARK  130  A    between atoms: _320  and  _321
REMARK  131  A    between atoms: _320  and  _323
REMARK  132  A    between atoms: _323  and  _324
REMARK  133  A    between atoms: _326  and  _328
REMARK  134  A    between atoms: _328  and  _329
REMARK  135  A    between atoms: _328  and  _331
REMARK  136  A    between atoms: _331  and  _332
REMARK  137  A    between atoms: _337  and  _339
REMARK  138  A    between atoms: _339  and  _340
REMARK  139  A    between atoms: _339  and  _342
REMARK  140  A    between atoms: _342  and  _343
REMARK  141  A    between atoms: _343  and  _344
REMARK  142  A    between atoms: _349  and  _351
REMARK  143  A    between atoms: _351  and  _352
REMARK  144  A    between atoms: _351  and  _354
REMARK  145  A    between atoms: _354  and  _355
REMARK  146  A    between atoms: _357  and  _359
REMARK  147  A    between atoms: _359  and  _360
REMARK  148  A    between atoms: _359  and  _362
REMARK  149  A    between atoms: _362  and  _363
REMARK  150  A    between atoms: _369  and  _371
REMARK  151  A    between atoms: _371  and  _372
REMARK  152  A    between atoms: _371  and  _374
REMARK  153  A    between atoms: _374  and  _375
REMARK  154  A    between atoms: _377  and  _379
REMARK  155  A    between atoms: _379  and  _380
REMARK  156  A    between atoms: _379  and  _382
REMARK  157  A    between atoms: _382  and  _383
REMARK  158  A    between atoms: _393  and  _395
REMARK  159  A    between atoms: _395  and  _396
REMARK  160  A    between atoms: _395  and  _398
REMARK  161  A    between atoms: _398  and  _399
REMARK  162  A    between atoms: _402  and  _404
REMARK  163  A    between atoms: _404  and  _405
REMARK  164  A    between atoms: _404  and  _407
REMARK  165  A    between atoms: _409  and  _411
REMARK  166  A    between atoms: _411  and  _412
REMARK  167  A    between atoms: _411  and  _414
REMARK  168  A    between atoms: _414  and  _415
REMARK  169  A    between atoms: _420  and  _421
REMARK  170  A    between atoms: _423  and  _425
REMARK  171  A    between atoms: _425  and  _426
REMARK  172  A    between atoms: _425  and  _428
REMARK  173  A    between atoms: _428  and  _429
REMARK  174  A    between atoms: _429  and  _430
REMARK  175  A    between atoms: _430  and  _431
REMARK  176  A    between atoms: _431  and  _432
REMARK  177  A    between atoms: _436  and  _438
REMARK  178  A    between atoms: _438  and  _439
REMARK  179  A    between atoms: _438  and  _441
REMARK  180  A    between atoms: _441  and  _442
REMARK  181  A    between atoms: _447  and  _448
REMARK  182  A    between atoms: _450  and  _452
REMARK  183  A    between atoms: _452  and  _453
REMARK  184  A    between atoms: _452  and  _455
REMARK  185  A    between atoms: _455  and  _456
REMARK  186  A    between atoms: _459  and  _461
REMARK  187  A    between atoms: _461  and  _462
REMARK  188  A    between atoms: _461  and  _464
REMARK  189  A    between atoms: _464  and  _465
REMARK  190  A    between atoms: _468  and  _470
REMARK  191  A    between atoms: _470  and  _471
REMARK  192  A    between atoms: _470  and  _473
REMARK  193  A    between atoms: _476  and  _478
REMARK  194  A    between atoms: _478  and  _479
REMARK  195  A    between atoms: _478  and  _481
REMARK  196  A    between atoms: _481  and  _482
REMARK  197  A    between atoms: _484  and  _486
REMARK  198  A    between atoms: _486  and  _487
REMARK  199  A    between atoms: _490  and  _492
REMARK  200  A    between atoms: _492  and  _493
REMARK  201  A    between atoms: _495  and  _497
REMARK  202  A    between atoms: _497  and  _498
REMARK  203  A    between atoms: _497  and  _500
REMARK  204  A    between atoms: _500  and  _501
REMARK  205  A    between atoms: _506  and  _508
REMARK  206  A    between atoms: _508  and  _509
REMARK  207  A    between atoms: _508  and  _511
REMARK  208  A    between atoms: _511  and  _512
REMARK  209  A    between atoms: _515  and  _517
REMARK  210  A    between atoms: _517  and  _518
REMARK  211  A    between atoms: _517  and  _520
REMARK  212  A    between atoms: _520  and  _521
REMARK  213  A    between atoms: _524  and  _526
REMARK  214  A    between atoms: _526  and  _527
REMARK  215  A    between atoms: _526  and  _529
REMARK  216  A    between atoms: _529  and  _530
REMARK  217  A    between atoms: _533  and  _535
REMARK  218  A    between atoms: _535  and  _536
REMARK  219  A    between atoms: _535  and  _538
REMARK  220  A    between atoms: _538  and  _539
REMARK  221  A    between atoms: _545  and  _547
REMARK  222  A    between atoms: _547  and  _548
REMARK  223  A    between atoms: _547  and  _550
REMARK  224  A    between atoms: _550  and  _551
REMARK  225  A    between atoms: _551  and  _552
REMARK  226  A    between atoms: _557  and  _559
REMARK  227  A    between atoms: _559  and  _560
REMARK  228  A    between atoms: _559  and  _562
REMARK  229  A    between atoms: _562  and  _563
REMARK  230  A    between atoms: _566  and  _568
REMARK  231  A    between atoms: _568  and  _569
REMARK  232  A    between atoms: _568  and  _571
REMARK  233  A    between atoms: _571  and  _572
REMARK  234  A    between atoms: _572  and  _573
REMARK  235  A    between atoms: _576  and  _578
REMARK  236  A    between atoms: _578  and  _579
REMARK  237  A    between atoms: _578  and  _581
REMARK  238  A    between atoms: _581  and  _582
REMARK  239  A    between atoms: _587  and  _589
REMARK  240  A    between atoms: _589  and  _590
REMARK  241  A    between atoms: _589  and  _592
REMARK  242  A    between atoms: _592  and  _593
REMARK  243  A    between atoms: _595  and  _597
REMARK  244  A    between atoms: _597  and  _598
REMARK  245  A    between atoms: _597  and  _600
REMARK  246  A    between atoms: _600  and  _601
REMARK  247  A    between atoms: _601  and  _602
REMARK  248  A    between atoms: _607  and  _609
REMARK  249  A    between atoms: _609  and  _610
REMARK  250  A    between atoms: _609  and  _612
REMARK  251  A    between atoms: _612  and  _613
REMARK  252  A    between atoms: _618  and  _619
REMARK  253  A    between atoms: _621  and  _623
REMARK  254  A    between atoms: _623  and  _624
REMARK  255  A    between atoms: _623  and  _626
REMARK  256  A    between atoms: _626  and  _627
REMARK  257  A    between atoms: _627  and  _628
REMARK  258  A    between atoms: _628  and  _629
REMARK  259  A    between atoms: _638  and  _640
REMARK  260  A    between atoms: _640  and  _641
REMARK  261  A    between atoms: _640  and  _643
REMARK  262  A    between atoms: _643  and  _644
REMARK  263  A    between atoms: _647  and  _649
REMARK  264  A    between atoms: _649  and  _650
REMARK  265  A    between atoms: _649  and  _652
REMARK  266  A    between atoms: _652  and  _653
REMARK  267  A    between atoms: _655  and  _657
REMARK  268  A    between atoms: _657  and  _658
REMARK  269  A    between atoms: _657  and  _660
REMARK  270  A    between atoms: _660  and  _661
REMARK  271  A    between atoms: _666  and  _668
REMARK  272  A    between atoms: _668  and  _669
REMARK  273  A    between atoms: _668  and  _671
REMARK  274  A    between atoms: _671  and  _672
REMARK  275  A    between atoms: _672  and  _673
REMARK  276  A    between atoms: _673  and  _674
REMARK  277  A    between atoms: _674  and  _675
REMARK  278  A    between atoms: _679  and  _681
REMARK  279  A    between atoms: _681  and  _682
REMARK  280  A    between atoms: _681  and  _684
REMARK  281  A    between atoms: _684  and  _685
REMARK  282  A    between atoms: _688  and  _690
REMARK  283  A    between atoms: _690  and  _691
REMARK  284  A    between atoms: _690  and  _693
REMARK  285  A    between atoms: _693  and  _694
REMARK  286  A    between atoms: _697  and  _699
REMARK  287  A    between atoms: _699  and  _700
REMARK  288  A    between atoms: _699  and  _702
REMARK  289  A    between atoms: _705  and  _707
REMARK  290  A    between atoms: _707  and  _708
REMARK  291  A    between atoms: _707  and  _710
REMARK  292  A    between atoms: _710  and  _711
REMARK                            x       y       z     vdW  Elec       q    Type
REMARK                         _______ _______ _______ _____ _____    ______ ____
ROOT
ATOM      1  CA  LEU A   1      72.537   3.853 -14.010  0.00  0.00    +0.133 C 
ENDROOT
BRANCH   1   2
ATOM      2  N   LEU A   1      73.214   4.171 -15.287  0.00  0.00    -0.239 NA
ATOM      3  H   LEU A   1      72.684   4.705 -16.005  0.00  0.00    +0.142 HD
ENDBRANCH   1   2
BRANCH   1   4
ATOM      4  C   LEU A   1      73.015   4.793 -12.916  0.00  0.00    +0.224 C 
ATOM      5  O   LEU A   1      73.363   4.380 -11.798  0.00  0.00    -0.287 OA
ENDBRANCH   1   4
BRANCH   1   6
ATOM      6  CB  LEU A   1      72.705   2.378 -13.619  0.00  0.00    +0.025 C 
BRANCH   6   7
ATOM      7  CG  LEU A   1      72.117   1.338 -14.577  0.00  0.00    +0.002 C 
ATOM      8  CD2 LEU A   1      71.767   0.087 -13.796  0.00  0.00    +0.000 C 
ATOM      9  CD1 LEU A   1      70.888   1.869 -15.306  0.00  0.00    +0.000 C 
ENDBRANCH   6   7
ENDBRANCH   1   6
TORSDOF 4
REMARK  Name = ../refined-set-2016/1rjk/1rjk_pocket.pdb
REMARK  292 active torsions:
REMARK  status: ('A' for Active; 'I' for Inactive)
REMARK    1  A    between atoms: _1  and  _3
REMARK    2  A    between atoms: _3  and  _4
REMARK    3  A    between atoms: _3  and  _6
REMARK    4  A    between atoms: _6  and  _7
REMARK    5  A    between atoms: _10  and  _12
REMARK    6  A    between atoms: _12  and  _13
REMARK    7  A    between atoms: _12  and  _15
REMARK    8  A    between atoms: _15  and  _16
REMARK    9  A    between atoms: _21  and  _22
REMARK   10  A    between atoms: _24  and  _26
REMARK   11  A    between atoms: _26  and  _27
REMARK   12  A    between atoms: _26  and  _29
REMARK   13  A    between atoms: _29  and  _30
REMARK   14  A    between atoms: _34  and  _35
REMARK   15  A    between atoms: _40  and  _42
REMARK   16  A    between atoms: _42  and  _43
REMARK   17  A    between atoms: _42  and  _45
REMARK   18  A    between atoms: _45  and  _46
REMARK   19  A    between atoms: _51  and  _52
REMARK   20  A    between atoms: _54  and  _56
REMARK   21  A    between atoms: _56  and  _57
REMARK   22  A    between atoms: _56  and  _59
REMARK   23  A    between atoms: _59  and  _60
REMARK   24  A    between atoms: _66  and  _68
REMARK   25  A    between atoms: _68  and  _69
REMARK   26  A    between atoms: _68  and  _71
REMARK   27  A    between atoms: _71  and  _72
REMARK   28  A    between atoms: _78  and  _80
REMARK   29  A    between atoms: _80  and  _81
REMARK   30  A    between atoms: _80  and  _83
REMARK   31  A    between atoms: _83  and  _84
REMARK   32  A    between atoms: _84  and  _85
REMARK   33  A    between atoms: _85  and  _86
REMARK   34  A    between atoms: _95  and  _97
REMARK   35  A    between atoms: _97  and  _98
REMARK   36  A    between atoms: _97  and  _100
REMARK   37  A    between atoms: _100  and  _101
REMARK   38  A    between atoms: _104  and  _106
REMARK   39  A    between atoms: _106  and  _107
REMARK   40  A    between atoms: _106  and  _109
REMARK   41  A    between atoms: _109  and  _110
REMARK   42  A    between atoms: _110  and  _111
REMARK   43  A    between atoms: _113  and  _115
REMARK   44  A    between atoms: _115  and  _116
REMARK   45  A    between atoms: _115  and  _118
REMARK   46  A    between atoms: _118  and  _119
REMARK   47  A    between atoms: _123  and  _124
REMARK   48  A    between atoms: _129  and  _131
REMARK   49  A    between atoms: _131  and  _132
REMARK   50  A    between atoms: _131  and  _134
REMARK   51  A    between atoms: _134  and  _135
REMARK   52  A    between atoms: _140  and  _142
REMARK   53  A    between atoms: _142  and  _143
REMARK   54  A    between atoms: _142  and  _145
REMARK   55  A    between atoms: _145  and  _146
REMARK   56  A    between atoms: _149  and  _151
REMARK   57  A    between atoms: _151  and  _152
REMARK   58  A    between atoms: _155  and  _157
REMARK   59  A    between atoms: _157  and  _158
REMARK   60  A    between atoms: _157  and  _160
REMARK   61  A    between atoms: _160  and  _161
REMARK   62  A    between atoms: _164  and  _166
REMARK   63  A    between atoms: _166  and  _167
REMARK   64  A    between atoms: _166  and  _169
REMARK   65  A    between atoms: _169  and  _170
REMARK   66  A    between atoms: _173  and  _175
REMARK   67  A    between atoms: _175  and  _176
REMARK   68  A    between atoms: _175  and  _178
REMARK   69  A    between atoms: _181  and  _183
REMARK   70  A    between atoms: _183  and  _184
REMARK   71  A    between atoms: _183  and  _186
REMARK   72  A    between atoms: _186  and  _187
REMARK   73  A    between atoms: _189  and  _191
REMARK   74  A    between atoms: _191  and  _192
REMARK   75  A    between atoms: _191  and  _194
REMARK   76  A    between atoms: _194  and  _195
REMARK   77  A    between atoms: _200  and  _201
REMARK   78  A    between atoms: _203  and  _205
REMARK   79  A    between atoms: _205  and  _206
REMARK   80  A    between atoms: _205  and  _208
REMARK   81  A    between atoms: _208  and  _209
REMARK   82  A    between atoms: _211  and  _213
REMARK   83  A    between atoms: _213  and  _214
REMARK   84  A    between atoms: _213  and  _216
REMARK   85  A    between atoms: _216  and  _217
REMARK   86  A    between atoms: _220  and  _222
REMARK   87  A    between atoms: _222  and  _223
REMARK   88  A    between atoms: _222  and  _225
REMARK   89  A    between atoms: _225  and  _226
REMARK   90  A    between atoms: _226  and  _227
REMARK   91  A    between atoms: _227  and  _228
REMARK   92  A    between atoms: _228  and  _229
REMARK   93  A    between atoms: _233  and  _235
REMARK   94  A    between atoms: _235  and  _236
REMARK   95  A    between atoms: _235  and  _238
REMARK   96  A    between atoms: _241  and  _243
REMARK   97  A    between atoms: _243  and  _244
REMARK   98  A    between atoms: _247  and  _249
REMARK   99  A    between atoms: _249  and  _250
REMARK  100  A    between atoms: _249  and  _252
REMARK  101  A    between atoms: _252  and  _253
REMARK  102  A    between atoms: _256  and  _258
REMARK  103  A    between atoms: _258  and  _259
REMARK  104  A    between atoms: _258  and  _261
REMARK  105  A    between atoms: _261  and  _262
REMARK  106  A    between atoms: _262  and  _263
REMARK  107  A    between atoms: _266  and  _268
REMARK  108  A    between atoms: _268  and  _269
REMARK  109  A    between atoms: _268  and  _271
REMARK  110  A    between atoms: _274  and  _276
REMARK  111  A    between atoms: _276  and  _277
REMARK  112  A    between atoms: _276  and  _279
REMARK  113  A    between atoms: _279  and  _280
REMARK  114  A    between atoms: _283  and  _285
REMARK  115  A    between atoms: _285  and  _286
REMARK  116  A    between atoms: _285  and  _288
REMARK  117  A    between atoms: _288  and  _289
REMARK  118  A    between atoms: _289  and  _290
REMARK  119  A    between atoms: _292  and  _294
REMARK  120  A    between atoms: _294  and  _295
REMARK  121  A    between atoms: _294  and  _297
REMARK  122  A    between atoms: _297  and  _298
REMARK  123  A    between atoms: _301  and  _303
REMARK  124  A    between atoms: _303  and  _304
REMARK  125  A    between atoms: _303  and  _306
REMARK  126  A    between atoms: _306  and  _307
REMARK  127  A    between atoms: _307  and  _308
REMARK  128  A    between atoms: _308  and  _309
REMARK  129  A    between atoms: _318  and  _320
REMARK  130  A    between atoms: _320  and  _321
REMARK  131  A    between atoms: _320  and  _323
REMARK  132  A    between atoms: _323  and  _324
REMARK  133  A    between atoms: _326  and  _328
REMARK  134  A    between atoms: _328  and  _329
REMARK  135  A    between atoms: _328  and  _331
REMARK  136  A    between atoms: _331  and  _332
REMARK  137  A    between atoms: _337  and  _339
REMARK  138  A    between atoms: _339  and  _340
REMARK  139  A    between atoms: _339  and  _342
REMARK  140  A    between atoms: _342  and  _343
REMARK  141  A    between atoms: _343  and  _344
REMARK  142  A    between atoms: _349  and  _351
REMARK  143  A    between atoms: _351  and  _352
REMARK  144  A    between atoms: _351  and  _354
REMARK  145  A    between atoms: _354  and  _355
REMARK  146  A    between atoms: _357  and  _359
REMARK  147  A    between atoms: _359  and  _360
REMARK  148  A    between atoms: _359  and  _362
REMARK  149  A    between atoms: _362  and  _363
REMARK  150  A    between atoms: _369  and  _371
REMARK  151  A    between atoms: _371  and  _372
REMARK  152  A    between atoms: _371  and  _374
REMARK  153  A    between atoms: _374  and  _375
REMARK  154  A    between atoms: _377  and  _379
REMARK  155  A    between atoms: _379  and  _380
REMARK  156  A    between atoms: _379  and  _382
REMARK  157  A    between atoms: _382  and  _383
REMARK  158  A    between atoms: _393  and  _395
REMARK  159  A    between atoms: _395  and  _396
REMARK  160  A    between atoms: _395  and  _398
REMARK  161  A    between atoms: _398  and  _399
REMARK  162  A    between atoms: _402  and  _404
REMARK  163  A    between atoms: _404  and  _405
REMARK  164  A    between atoms: _404  and  _407
REMARK  165  A    between atoms: _409  and  _411
REMARK  166  A    between atoms: _411  and  _412
REMARK  167  A    between atoms: _411  and  _414
REMARK  168  A    between atoms: _414  and  _415
REMARK  169  A    between atoms: _420  and  _421
REMARK  170  A    between atoms: _423  and  _425
REMARK  171  A    between atoms: _425  and  _426
REMARK  172  A    between atoms: _425  and  _428
REMARK  173  A    between atoms: _428  and  _429
REMARK  174  A    between atoms: _429  and  _430
REMARK  175  A    between atoms: _430  and  _431
REMARK  176  A    between atoms: _431  and  _432
REMARK  177  A    between atoms: _436  and  _438
REMARK  178  A    between atoms: _438  and  _439
REMARK  179  A    between atoms: _438  and  _441
REMARK  180  A    between atoms: _441  and  _442
REMARK  181  A    between atoms: _447  and  _448
REMARK  182  A    between atoms: _450  and  _452
REMARK  183  A    between atoms: _452  and  _453
REMARK  184  A    between atoms: _452  and  _455
REMARK  185  A    between atoms: _455  and  _456
REMARK  186  A    between atoms: _459  and  _461
REMARK  187  A    between atoms: _461  and  _462
REMARK  188  A    between atoms: _461  and  _464
REMARK  189  A    between atoms: _464  and  _465
REMARK  190  A    between atoms: _468  and  _470
REMARK  191  A    between atoms: _470  and  _471
REMARK  192  A    between atoms: _470  and  _473
REMARK  193  A    between atoms: _476  and  _478
REMARK  194  A    between atoms: _478  and  _479
REMARK  195  A    between atoms: _478  and  _481
REMARK  196  A    between atoms: _481  and  _482
REMARK  197  A    between atoms: _484  and  _486
REMARK  198  A    between atoms: _486  and  _487
REMARK  199  A    between atoms: _490  and  _492
REMARK  200  A    between atoms: _492  and  _493
REMARK  201  A    between atoms: _495  and  _497
REMARK  202  A    between atoms: _497  and  _498
REMARK  203  A    between atoms: _497  and  _500
REMARK  204  A    between atoms: _500  and  _501
REMARK  205  A    between atoms: _506  and  _508
REMARK  206  A    between atoms: _508  and  _509
REMARK  207  A    between atoms: _508  and  _511
REMARK  208  A    between atoms: _511  and  _512
REMARK  209  A    between atoms: _515  and  _517
REMARK  210  A    between atoms: _517  and  _518
REMARK  211  A    between atoms: _517  and  _520
REMARK  212  A    between atoms: _520  and  _521
REMARK  213  A    between atoms: _524  and  _526
REMARK  214  A    between atoms: _526  and  _527
REMARK  215  A    between atoms: _526  and  _529
REMARK  216  A    between atoms: _529  and  _530
REMARK  217  A    between atoms: _533  and  _535
REMARK  218  A    between atoms: _535  and  _536
REMARK  219  A    between atoms: _535  and  _538
REMARK  220  A    between atoms: _538  and  _539
REMARK  221  A    between atoms: _545  and  _547
REMARK  222  A    between atoms: _547  and  _548
REMARK  223  A    between atoms: _547  and  _550
REMARK  224  A    between atoms: _550  and  _551
REMARK  225  A    between atoms: _551  and  _552
REMARK  226  A    between atoms: _557  and  _559
REMARK  227  A    between atoms: _559  and  _560
REMARK  228  A    between atoms: _559  and  _562
REMARK  229  A    between atoms: _562  and  _563
REMARK  230  A    between atoms: _566  and  _568
REMARK  231  A    between atoms: _568  and  _569
REMARK  232  A    between atoms: _568  and  _571
REMARK  233  A    between atoms: _571  and  _572
REMARK  234  A    between atoms: _572  and  _573
REMARK  235  A    between atoms: _576  and  _578
REMARK  236  A    between atoms: _578  and  _579
REMARK  237  A    between atoms: _578  and  _581
REMARK  238  A    between atoms: _581  and  _582
REMARK  239  A    between atoms: _587  and  _589
REMARK  240  A    between atoms: _589  and  _590
REMARK  241  A    between atoms: _589  and  _592
REMARK  242  A    between atoms: _592  and  _593
REMARK  243  A    between atoms: _595  and  _597
REMARK  244  A    between atoms: _597  and  _598
REMARK  245  A    between atoms: _597  and  _600
REMARK  246  A    between atoms: _600  and  _601
REMARK  247  A    between atoms: _601  and  _602
REMARK  248  A    between atoms: _607  and  _609
REMARK  249  A    between atoms: _609  and  _610
REMARK  250  A    between atoms: _609  and  _612
REMARK  251  A    between atoms: _612  and  _613
REMARK  252  A    between atoms: _618  and  _619
REMARK  253  A    between atoms: _621  and  _623
REMARK  254  A    between atoms: _623  and  _624
REMARK  255  A    between atoms: _623  and  _626
REMARK  256  A    between atoms: _626  and  _627
REMARK  257  A    between atoms: _627  and  _628
REMARK  258  A    between atoms: _628  and  _629
REMARK  259  A    between atoms: _638  and  _640
REMARK  260  A    between atoms: _640  and  _641
REMARK  261  A    between atoms: _640  and  _643
REMARK  262  A    between atoms: _643  and  _644
REMARK  263  A    between atoms: _647  and  _649
REMARK  264  A    between atoms: _649  and  _650
REMARK  265  A    between atoms: _649  and  _652
REMARK  266  A    between atoms: _652  and  _653
REMARK  267  A    between atoms: _655  and  _657
REMARK  268  A    between atoms: _657  and  _658
REMARK  269  A    between atoms: _657  and  _660
REMARK  270  A    between atoms: _660  and  _661
REMARK  271  A    between atoms: _666  and  _668
REMARK  272  A    between atoms: _668  and  _669
REMARK  273  A    between atoms: _668  and  _671
REMARK  274  A    between atoms: _671  and  _672
REMARK  275  A    between atoms: _672  and  _673
REMARK  276  A    between atoms: _673  and  _674
REMARK  277  A    between atoms: _674  and  _675
REMARK  278  A    between atoms: _679  and  _681
REMARK  279  A    between atoms: _681  and  _682
REMARK  280  A    between atoms: _681  and  _684
REMARK  281  A    between atoms: _684  and  _685
REMARK  282  A    between atoms: _688  and  _690
REMARK  283  A    between atoms: _690  and  _691
REMARK  284  A    between atoms: _690  and  _693
REMARK  285  A    between atoms: _693  and  _694
REMARK  286  A    between atoms: _697  and  _699
REMARK  287  A    between atoms: _699  and  _700
REMARK  288  A    between atoms: _699  and  _702
REMARK  289  A    between atoms: _705  and  _707
REMARK  290  A    between atoms: _707  and  _708
REMARK  291  A    between atoms: _707  and  _710
REMARK  292  A    between atoms: _710  and  _711
REMARK                            x       y       z     vdW  Elec       q    Type
REMARK                         _______ _______ _______ _____ _____    ______ ____
ROOT
ATOM      1  CA  ASP A   7      70.956   3.492  -0.322  0.00  0.00    +0.160 C 
ENDROOT
BRANCH   1   2
ATOM      2  C   ASP A   7      69.619   3.849   0.294  0.00  0.00    +0.241 C 
ATOM      3  O   ASP A   7      69.363   3.505   1.442  0.00  0.00    -0.273 OA
ATOM      4  N   LEU A   8      68.774   4.542  -0.476  0.00  0.00    -0.297 N 
ATOM      5  H   LEU A   8      69.093   4.873  -1.409  0.00  0.00    +0.150 HD
BRANCH   4   6
ATOM      6  CA  LEU A   8      67.432   4.842  -0.044  0.00  0.00    +0.149 C 
BRANCH   6   7
ATOM      7  C   LEU A   8      66.626   3.557   0.249  0.00  0.00    +0.241 C 
ATOM      8  O   LEU A   8      65.936   3.450   1.260  0.00  0.00    -0.273 OA
ATOM      9  N   VAL A   9      66.692   2.606  -0.668  0.00  0.00    -0.297 N 
ATOM     10  H   VAL A   9      67.252   2.745  -1.533  0.00  0.00    +0.150 HD
BRANCH   9  11
ATOM     11  CA  VAL A   9      65.964   1.354  -0.447  0.00  0.00    +0.149 C 
BRANCH  11  12
ATOM     12  C   VAL A   9      66.542   0.640   0.774  0.00  0.00    +0.241 C 
ATOM     13  O   VAL A   9      65.800   0.098   1.585  0.00  0.00    -0.273 OA
ATOM     14  N   SER A  10      67.866   0.646   0.902  0.00  0.00    -0.295 N 
ATOM     15  H   SER A  10      68.445   1.180   0.223  0.00  0.00    +0.150 HD
BRANCH  14  16
ATOM     16  CA  SER A  10      68.520  -0.091   1.989  0.00  0.00    +0.178 C 
BRANCH  16  17
ATOM     17  C   SER A  10      68.094   0.481   3.330  0.00  0.00    +0.243 C 
ATOM     18  O   SER A  10      67.714  -0.256   4.248  0.00  0.00    -0.273 OA
ATOM     19  N   TYR A  11      68.112   1.813   3.412  0.00  0.00    -0.297 N 
ATOM     20  H   TYR A  11      68.457   2.358   2.596  0.00  0.00    +0.150 HD
BRANCH  19  21
ATOM     21  CA  TYR A  11      67.665   2.542   4.605  0.00  0.00    +0.153 C 
BRANCH  21  22
ATOM     22  C   TYR A  11      66.206   2.202   4.897  0.00  0.00    +0.241 C 
ATOM     23  O   TYR A  11      65.806   1.938   6.046  0.00  0.00    -0.273 OA
ATOM     24  N   SER A  12      65.417   2.150   3.831  0.00  0.00    -0.295 N 
ATOM     25  H   SER A  12      65.832   2.251   2.883  0.00  0.00    +0.150 HD
BRANCH  24  26
ATOM     26  CA  SER A  12      63.990   1.955   3.965  0.00  0.00    +0.178 C 
BRANCH  26  27
ATOM     27  C   SER A  12      63.678   0.544   4.438  0.00  0.00    +0.243 C 
ATOM     28  O   SER A  12      62.713   0.337   5.180  0.00  0.00    -0.273 OA
ATOM     29  N   ILE A  13      64.469  -0.434   3.984  0.00  0.00    -0.298 N 
ATOM     30  H   ILE A  13      65.201  -0.236   3.273  0.00  0.00    +0.150 HD
BRANCH  29  31
ATOM     31  CA  ILE A  13      64.285  -1.792   4.508  0.00  0.00    +0.137 C 
BRANCH  31  32
ATOM     32  CB  ILE A  13      65.265  -2.790   3.810  0.00  0.00    +0.026 C 
ATOM     33  CG2 ILE A  13      65.250  -4.130   4.512  0.00  0.00    +0.002 C 
BRANCH  32  34
ATOM     34  CG1 ILE A  13      64.910  -2.990   2.319  0.00  0.00    +0.002 C 
ATOM     35  CD1 ILE A  13      66.082  -3.710   1.506  0.00  0.00    +0.000 C 
ENDBRANCH  32  34
ENDBRANCH  31  32
BRANCH  31  36
ATOM     36  C   ILE A  13      64.528  -1.819   6.036  0.00  0.00    +0.227 C 
ATOM     37  O   ILE A  13      63.776  -2.441   6.773  0.00  0.00    -0.286 OA
ENDBRANCH  31  36
ENDBRANCH  29  31
ENDBRANCH  26  27
BRANCH  26  38
ATOM     38  CB  SER A  12      63.272   2.220   2.623  0.00  0.00    +0.166 C 
BRANCH  38  39
ATOM     39  OG  SER A  12      63.370   3.606   2.274  0.00  0.00    -0.380 OA
ATOM     40  H   SER A  12      64.324   3.856   2.187  0.00  0.00    +0.211 HD
ENDBRANCH  38  39
ENDBRANCH  26  38
ENDBRANCH  24  26
ENDBRANCH  21  22
BRANCH  21  41
ATOM     41  CB  TYR A  11      67.815   4.026   4.312  0.00  0.00    +0.055 C 
BRANCH  41  42
ATOM     42  CG  TYR A  11      67.196   4.974   5.325  0.00  0.00    -0.020 A 
ATOM     43  CD2 TYR A  11      67.939   5.419   6.416  0.00  0.00    -0.001 A 
ATOM     44  CE2 TYR A  11      67.398   6.342   7.343  0.00  0.00    +0.036 A 
ATOM     45  CZ  TYR A  11      66.121   6.821   7.142  0.00  0.00    +0.134 A 
ATOM     46  CE1 TYR A  11      65.377   6.400   6.047  0.00  0.00    +0.036 A 
ATOM     47  CD1 TYR A  11      65.914   5.477   5.150  0.00  0.00    -0.001 A 
BRANCH  45  48
ATOM     48  OH  TYR A  11      65.577   7.733   8.028  0.00  0.00    -0.506 OA
ATOM     49  HH  TYR A  11      66.232   7.925   8.745  0.00  0.00    +0.292 HD
ENDBRANCH  45  48
ENDBRANCH  41  42
ENDBRANCH  21  41
ENDBRANCH  19  21
ENDBRANCH  16  17
BRANCH  16  50
ATOM     50  CB  SER A  10      70.038  -0.066   1.864  0.00  0.00    +0.166 C 
BRANCH  50  51
ATOM     51  OG  SER A  10      70.587  -1.128   2.646  0.00  0.00    -0.380 OA
ATOM     52  H   SER A  10      70.328  -1.007   3.594  0.00  0.00    +0.211 HD
ENDBRANCH  50  51
ENDBRANCH  16  50
ENDBRANCH  14  16
ENDBRANCH  11  12
BRANCH  11  53
ATOM     53  CB  VAL A   9      66.036   0.477  -1.719  0.00  0.00    +0.027 C 
ATOM     54  CG2 VAL A   9      65.605  -0.952  -1.421  0.00  0.00    +0.002 C 
ATOM     55  CG1 VAL A   9      65.225   1.117  -2.864  0.00  0.00    +0.002 C 
ENDBRANCH  11  53
ENDBRANCH   9  11
ENDBRANCH   6   7
BRANCH   6  56
ATOM     56  CB  LEU A   8      66.705   5.679  -1.096  0.00  0.00    +0.029 C 
BRANCH  56  57
ATOM     57  CG  LEU A   8      65.219   5.999  -0.859  0.00  0.00    +0.002 C 
ATOM     58  CD2 LEU A   8      64.954   6.540   0.558  0.00  0.00    +0.000 C 
ATOM     59  CD1 LEU A   8      64.703   6.980  -1.913  0.00  0.00    +0.000 C 
ENDBRANCH  56  57
ENDBRANCH   6  56
ENDBRANCH   4   6
ENDBRANCH   1   2
BRANCH   1  62
ATOM     60  C   ALA A   6      70.188   1.921  -2.022  0.00  0.00    +0.241 C 
ATOM     61  O   ALA A   6      69.715   1.173  -1.205  0.00  0.00    -0.273 OA
ATOM     62  N   ASP A   7      70.816   3.048  -1.693  0.00  0.00    -0.297 N 
ATOM     63  H   ASP A   7      71.222   3.633  -2.451  0.00  0.00    +0.150 HD
BRANCH  60  64
ATOM     64  CA  ALA A   6      70.060   1.615  -3.526  0.00  0.00    +0.149 C 
ATOM     65  CB  ALA A   6      71.363   0.981  -4.062  0.00  0.00    +0.031 C 
BRANCH  64  68
ATOM     66  C   LEU A   5      68.595   3.488  -4.027  0.00  0.00    +0.241 C 
ATOM     67  O   LEU A   5      67.745   3.084  -3.265  0.00  0.00    -0.273 OA
ATOM     68  N   ALA A   6      69.729   2.836  -4.263  0.00  0.00    -0.297 N 
ATOM     69  H   ALA A   6      70.390   3.198  -4.980  0.00  0.00    +0.150 HD
BRANCH  66  70
ATOM     70  CA  LEU A   5      68.416   4.839  -4.694  0.00  0.00    +0.149 C 
BRANCH  70  73
ATOM     71  C   HIS A   4      70.318   6.111  -3.917  0.00  0.00    +0.241 C 
ATOM     72  O   HIS A   4      69.915   6.052  -2.765  0.00  0.00    -0.273 OA
ATOM     73  N   LEU A   5      69.696   5.496  -4.918  0.00  0.00    -0.297 N 
ATOM     74  H   LEU A   5      70.125   5.484  -5.865  0.00  0.00    +0.150 HD
BRANCH  71  75
ATOM     75  CA  HIS A   4      71.600   6.877  -4.244  0.00  0.00    +0.155 C 
BRANCH  75  78
ATOM     76  C   PRO A   3      73.070   4.997  -4.711  0.00  0.00    +0.241 C 
ATOM     77  O   PRO A   3      72.830   4.487  -3.607  0.00  0.00    -0.273 OA
ATOM     78  N   HIS A   4      72.506   6.133  -5.114  0.00  0.00    -0.297 N 
ATOM     79  H   HIS A   4      72.714   6.497  -6.066  0.00  0.00    +0.150 HD
BRANCH  76  83
ATOM     80  C   LEU A   2      72.220   3.533  -7.221  0.00  0.00    +0.244 C 
ATOM     81  O   LEU A   2      71.653   2.979  -6.294  0.00  0.00    -0.273 OA
ATOM     82  N   PRO A   3      73.401   4.149  -7.060  0.00  0.00    -0.272 N 
ATOM     83  CA  PRO A   3      74.000   4.275  -5.704  0.00  0.00    +0.152 C 
ATOM     84  CB  PRO A   3      75.281   5.095  -5.936  0.00  0.00    +0.031 C 
ATOM     85  CG  PRO A   3      75.647   4.866  -7.430  0.00  0.00    +0.024 C 
ATOM     86  CD  PRO A   3      74.281   4.714  -8.114  0.00  0.00    +0.094 C 
BRANCH  80  87
ATOM     87  CA  LEU A   2      71.557   3.458  -8.623  0.00  0.00    +0.149 C 
BRANCH  87  90
ATOM     88  C   MET A   1      70.838   5.761  -8.850  0.00  0.00    +0.238 C 
ATOM     89  O   MET A   1      70.257   5.693  -7.768  0.00  0.00    -0.274 OA
ATOM     90  N   LEU A   2      71.499   4.727  -9.354  0.00  0.00    -0.297 N 
ATOM     91  H   LEU A   2      71.978   4.817 -10.272  0.00  0.00    +0.150 HD
BRANCH  88  92
ATOM     92  CA  MET A   1      70.836   7.069  -9.683  0.00  0.00    +0.146 C 
BRANCH  92  93
ATOM     93  N   MET A   1      71.600   6.904 -10.939  0.00  0.00    -0.238 NA
ATOM     94  H   MET A   1      71.136   6.482 -11.768  0.00  0.00    +0.142 HD
ENDBRANCH  92  93
BRANCH  92  95
ATOM     95  CB  MET A   1      69.400   7.509  -9.988  0.00  0.00    +0.038 C 
BRANCH  95  96
ATOM     96  CG  MET A   1      69.244   8.976 -10.340  0.00  0.00    +0.060 C 
BRANCH  96  97
ATOM     97  SD  MET A   1      69.634  10.039  -8.956  0.00  0.00    -0.139 S 
ATOM     98  CE  MET A   1      68.210   9.738  -7.902  0.00  0.00    +0.069 C 
ENDBRANCH  96  97
ENDBRANCH  95  96
ENDBRANCH  92  95
ENDBRANCH  88  92
ENDBRANCH  87  90
BRANCH  87  99
ATOM     99  CB  LEU A   2      72.211   2.354  -9.439  0.00  0.00    +0.029 C 
BRANCH  99 100
ATOM    100  CG  LEU A   2      72.205   0.963  -8.786  0.00  0.00    +0.002 C 
ATOM    101  CD2 LEU A   2      70.777   0.510  -8.404  0.00  0.00    +0.000 C 
ATOM    102  CD1 LEU A   2      72.889  -0.040  -9.704  0.00  0.00    +0.000 C 
ENDBRANCH  99 100
ENDBRANCH  87  99
ENDBRANCH  80  87
ENDBRANCH  76  83
ENDBRANCH  75  78
BRANCH  75 103
ATOM    103  CB  HIS A   4      71.251   8.261  -4.833  0.00  0.00    +0.076 C 
BRANCH 103 104
ATOM    104  CG  HIS A   4      70.407   9.096  -3.917  0.00  0.00    +0.082 A 
ATOM    105  ND1 HIS A   4      70.901   9.686  -2.772  0.00  0.00    -0.227 NA
ATOM    106  CE1 HIS A   4      69.924  10.321  -2.153  0.00  0.00    +0.199 A 
ATOM    107  NE2 HIS A   4      68.807  10.138  -2.837  0.00  0.00    -0.221 NA
ATOM    108  CD2 HIS A   4      69.086   9.388  -3.951  0.00  0.00    +0.115 A 
ENDBRANCH 103 104
ENDBRANCH  75 103
ENDBRANCH  71  75
ENDBRANCH  70  73
BRANCH  70 109
ATOM    109  CB  LEU A   5      67.596   4.719  -5.990  0.00  0.00    +0.029 C 
BRANCH 109 110
ATOM    110  CG  LEU A   5      67.062   6.049  -6.538  0.00  0.00    +0.002 C 
ATOM    111  CD2 LEU A   5      66.359   6.895  -5.458  0.00  0.00    +0.000 C 
ATOM    112  CD1 LEU A   5      66.111   5.742  -7.698  0.00  0.00    +0.000 C 
ENDBRANCH 109 110
ENDBRANCH  70 109
ENDBRANCH  66  70
ENDBRANCH  64  68
ENDBRANCH  60  64
ENDBRANCH   1  62
BRANCH   1 113
ATOM    113  CB  ASP A   7      71.896   4.692  -0.236  0.00  0.00    +0.143 C 
BRANCH 113 114
ATOM    114  CG  ASP A   7      73.317   4.299  -0.264  0.00  0.00    +0.367 C 
ATOM    115  OD2 ASP A   7      73.701   3.097  -0.192  0.00  0.00    -0.246 OA
ATOM    116  OD1 ASP A   7      74.157   5.229  -0.372  0.00  0.00    -0.246 OA
ENDBRANCH 113 114
ENDBRANCH   1 113
TORSDOF 48
REMARK  Name = ../refined-set-2016/1rjk/1rjk_pocket.pdb
REMARK  292 active torsions:
REMARK  status: ('A' for Active; 'I' for Inactive)
REMARK    1  A    between atoms: _1  and  _3
REMARK    2  A    between atoms: _3  and  _4
REMARK    3  A    between atoms: _3  and  _6
REMARK    4  A    between atoms: _6  and  _7
REMARK    5  A    between atoms: _10  and  _12
REMARK    6  A    between atoms: _12  and  _13
REMARK    7  A    between atoms: _12  and  _15
REMARK    8  A    between atoms: _15  and  _16
REMARK    9  A    between atoms: _21  and  _22
REMARK   10  A    between atoms: _24  and  _26
REMARK   11  A    between atoms: _26  and  _27
REMARK   12  A    between atoms: _26  and  _29
REMARK   13  A    between atoms: _29  and  _30
REMARK   14  A    between atoms: _34  and  _35
REMARK   15  A    between atoms: _40  and  _42
REMARK   16  A    between atoms: _42  and  _43
REMARK   17  A    between atoms: _42  and  _45
REMARK   18  A    between atoms: _45  and  _46
REMARK   19  A    between atoms: _51  and  _52
REMARK   20  A    between atoms: _54  and  _56
REMARK   21  A    between atoms: _56  and  _57
REMARK   22  A    between atoms: _56  and  _59
REMARK   23  A    between atoms: _59  and  _60
REMARK   24  A    between atoms: _66  and  _68
REMARK   25  A    between atoms: _68  and  _69
REMARK   26  A    between atoms: _68  and  _71
REMARK   27  A    between atoms: _71  and  _72
REMARK   28  A    between atoms: _78  and  _80
REMARK   29  A    between atoms: _80  and  _81
REMARK   30  A    between atoms: _80  and  _83
REMARK   31  A    between atoms: _83  and  _84
REMARK   32  A    between atoms: _84  and  _85
REMARK   33  A    between atoms: _85  and  _86
REMARK   34  A    between atoms: _95  and  _97
REMARK   35  A    between atoms: _97  and  _98
REMARK   36  A    between atoms: _97  and  _100
REMARK   37  A    between atoms: _100  and  _101
REMARK   38  A    between atoms: _104  and  _106
REMARK   39  A    between atoms: _106  and  _107
REMARK   40  A    between atoms: _106  and  _109
REMARK   41  A    between atoms: _109  and  _110
REMARK   42  A    between atoms: _110  and  _111
REMARK   43  A    between atoms: _113  and  _115
REMARK   44  A    between atoms: _115  and  _116
REMARK   45  A    between atoms: _115  and  _118
REMARK   46  A    between atoms: _118  and  _119
REMARK   47  A    between atoms: _123  and  _124
REMARK   48  A    between atoms: _129  and  _131
REMARK   49  A    between atoms: _131  and  _132
REMARK   50  A    between atoms: _131  and  _134
REMARK   51  A    between atoms: _134  and  _135
REMARK   52  A    between atoms: _140  and  _142
REMARK   53  A    between atoms: _142  and  _143
REMARK   54  A    between atoms: _142  and  _145
REMARK   55  A    between atoms: _145  and  _146
REMARK   56  A    between atoms: _149  and  _151
REMARK   57  A    between atoms: _151  and  _152
REMARK   58  A    between atoms: _155  and  _157
REMARK   59  A    between atoms: _157  and  _158
REMARK   60  A    between atoms: _157  and  _160
REMARK   61  A    between atoms: _160  and  _161
REMARK   62  A    between atoms: _164  and  _166
REMARK   63  A    between atoms: _166  and  _167
REMARK   64  A    between atoms: _166  and  _169
REMARK   65  A    between atoms: _169  and  _170
REMARK   66  A    between atoms: _173  and  _175
REMARK   67  A    between atoms: _175  and  _176
REMARK   68  A    between atoms: _175  and  _178
REMARK   69  A    between atoms: _181  and  _183
REMARK   70  A    between atoms: _183  and  _184
REMARK   71  A    between atoms: _183  and  _186
REMARK   72  A    between atoms: _186  and  _187
REMARK   73  A    between atoms: _189  and  _191
REMARK   74  A    between atoms: _191  and  _192
REMARK   75  A    between atoms: _191  and  _194
REMARK   76  A    between atoms: _194  and  _195
REMARK   77  A    between atoms: _200  and  _201
REMARK   78  A    between atoms: _203  and  _205
REMARK   79  A    between atoms: _205  and  _206
REMARK   80  A    between atoms: _205  and  _208
REMARK   81  A    between atoms: _208  and  _209
REMARK   82  A    between atoms: _211  and  _213
REMARK   83  A    between atoms: _213  and  _214
REMARK   84  A    between atoms: _213  and  _216
REMARK   85  A    between atoms: _216  and  _217
REMARK   86  A    between atoms: _220  and  _222
REMARK   87  A    between atoms: _222  and  _223
REMARK   88  A    between atoms: _222  and  _225
REMARK   89  A    between atoms: _225  and  _226
REMARK   90  A    between atoms: _226  and  _227
REMARK   91  A    between atoms: _227  and  _228
REMARK   92  A    between atoms: _228  and  _229
REMARK   93  A    between atoms: _233  and  _235
REMARK   94  A    between atoms: _235  and  _236
REMARK   95  A    between atoms: _235  and  _238
REMARK   96  A    between atoms: _241  and  _243
REMARK   97  A    between atoms: _243  and  _244
REMARK   98  A    between atoms: _247  and  _249
REMARK   99  A    between atoms: _249  and  _250
REMARK  100  A    between atoms: _249  and  _252
REMARK  101  A    between atoms: _252  and  _253
REMARK  102  A    between atoms: _256  and  _258
REMARK  103  A    between atoms: _258  and  _259
REMARK  104  A    between atoms: _258  and  _261
REMARK  105  A    between atoms: _261  and  _262
REMARK  106  A    between atoms: _262  and  _263
REMARK  107  A    between atoms: _266  and  _268
REMARK  108  A    between atoms: _268  and  _269
REMARK  109  A    between atoms: _268  and  _271
REMARK  110  A    between atoms: _274  and  _276
REMARK  111  A    between atoms: _276  and  _277
REMARK  112  A    between atoms: _276  and  _279
REMARK  113  A    between atoms: _279  and  _280
REMARK  114  A    between atoms: _283  and  _285
REMARK  115  A    between atoms: _285  and  _286
REMARK  116  A    between atoms: _285  and  _288
REMARK  117  A    between atoms: _288  and  _289
REMARK  118  A    between atoms: _289  and  _290
REMARK  119  A    between atoms: _292  and  _294
REMARK  120  A    between atoms: _294  and  _295
REMARK  121  A    between atoms: _294  and  _297
REMARK  122  A    between atoms: _297  and  _298
REMARK  123  A    between atoms: _301  and  _303
REMARK  124  A    between atoms: _303  and  _304
REMARK  125  A    between atoms: _303  and  _306
REMARK  126  A    between atoms: _306  and  _307
REMARK  127  A    between atoms: _307  and  _308
REMARK  128  A    between atoms: _308  and  _309
REMARK  129  A    between atoms: _318  and  _320
REMARK  130  A    between atoms: _320  and  _321
REMARK  131  A    between atoms: _320  and  _323
REMARK  132  A    between atoms: _323  and  _324
REMARK  133  A    between atoms: _326  and  _328
REMARK  134  A    between atoms: _328  and  _329
REMARK  135  A    between atoms: _328  and  _331
REMARK  136  A    between atoms: _331  and  _332
REMARK  137  A    between atoms: _337  and  _339
REMARK  138  A    between atoms: _339  and  _340
REMARK  139  A    between atoms: _339  and  _342
REMARK  140  A    between atoms: _342  and  _343
REMARK  141  A    between atoms: _343  and  _344
REMARK  142  A    between atoms: _349  and  _351
REMARK  143  A    between atoms: _351  and  _352
REMARK  144  A    between atoms: _351  and  _354
REMARK  145  A    between atoms: _354  and  _355
REMARK  146  A    between atoms: _357  and  _359
REMARK  147  A    between atoms: _359  and  _360
REMARK  148  A    between atoms: _359  and  _362
REMARK  149  A    between atoms: _362  and  _363
REMARK  150  A    between atoms: _369  and  _371
REMARK  151  A    between atoms: _371  and  _372
REMARK  152  A    between atoms: _371  and  _374
REMARK  153  A    between atoms: _374  and  _375
REMARK  154  A    between atoms: _377  and  _379
REMARK  155  A    between atoms: _379  and  _380
REMARK  156  A    between atoms: _379  and  _382
REMARK  157  A    between atoms: _382  and  _383
REMARK  158  A    between atoms: _393  and  _395
REMARK  159  A    between atoms: _395  and  _396
REMARK  160  A    between atoms: _395  and  _398
REMARK  161  A    between atoms: _398  and  _399
REMARK  162  A    between atoms: _402  and  _404
REMARK  163  A    between atoms: _404  and  _405
REMARK  164  A    between atoms: _404  and  _407
REMARK  165  A    between atoms: _409  and  _411
REMARK  166  A    between atoms: _411  and  _412
REMARK  167  A    between atoms: _411  and  _414
REMARK  168  A    between atoms: _414  and  _415
REMARK  169  A    between atoms: _420  and  _421
REMARK  170  A    between atoms: _423  and  _425
REMARK  171  A    between atoms: _425  and  _426
REMARK  172  A    between atoms: _425  and  _428
REMARK  173  A    between atoms: _428  and  _429
REMARK  174  A    between atoms: _429  and  _430
REMARK  175  A    between atoms: _430  and  _431
REMARK  176  A    between atoms: _431  and  _432
REMARK  177  A    between atoms: _436  and  _438
REMARK  178  A    between atoms: _438  and  _439
REMARK  179  A    between atoms: _438  and  _441
REMARK  180  A    between atoms: _441  and  _442
REMARK  181  A    between atoms: _447  and  _448
REMARK  182  A    between atoms: _450  and  _452
REMARK  183  A    between atoms: _452  and  _453
REMARK  184  A    between atoms: _452  and  _455
REMARK  185  A    between atoms: _455  and  _456
REMARK  186  A    between atoms: _459  and  _461
REMARK  187  A    between atoms: _461  and  _462
REMARK  188  A    between atoms: _461  and  _464
REMARK  189  A    between atoms: _464  and  _465
REMARK  190  A    between atoms: _468  and  _470
REMARK  191  A    between atoms: _470  and  _471
REMARK  192  A    between atoms: _470  and  _473
REMARK  193  A    between atoms: _476  and  _478
REMARK  194  A    between atoms: _478  and  _479
REMARK  195  A    between atoms: _478  and  _481
REMARK  196  A    between atoms: _481  and  _482
REMARK  197  A    between atoms: _484  and  _486
REMARK  198  A    between atoms: _486  and  _487
REMARK  199  A    between atoms: _490  and  _492
REMARK  200  A    between atoms: _492  and  _493
REMARK  201  A    between atoms: _495  and  _497
REMARK  202  A    between atoms: _497  and  _498
REMARK  203  A    between atoms: _497  and  _500
REMARK  204  A    between atoms: _500  and  _501
REMARK  205  A    between atoms: _506  and  _508
REMARK  206  A    between atoms: _508  and  _509
REMARK  207  A    between atoms: _508  and  _511
REMARK  208  A    between atoms: _511  and  _512
REMARK  209  A    between atoms: _515  and  _517
REMARK  210  A    between atoms: _517  and  _518
REMARK  211  A    between atoms: _517  and  _520
REMARK  212  A    between atoms: _520  and  _521
REMARK  213  A    between atoms: _524  and  _526
REMARK  214  A    between atoms: _526  and  _527
REMARK  215  A    between atoms: _526  and  _529
REMARK  216  A    between atoms: _529  and  _530
REMARK  217  A    between atoms: _533  and  _535
REMARK  218  A    between atoms: _535  and  _536
REMARK  219  A    between atoms: _535  and  _538
REMARK  220  A    between atoms: _538  and  _539
REMARK  221  A    between atoms: _545  and  _547
REMARK  222  A    between atoms: _547  and  _548
REMARK  223  A    between atoms: _547  and  _550
REMARK  224  A    between atoms: _550  and  _551
REMARK  225  A    between atoms: _551  and  _552
REMARK  226  A    between atoms: _557  and  _559
REMARK  227  A    between atoms: _559  and  _560
REMARK  228  A    between atoms: _559  and  _562
REMARK  229  A    between atoms: _562  and  _563
REMARK  230  A    between atoms: _566  and  _568
REMARK  231  A    between atoms: _568  and  _569
REMARK  232  A    between atoms: _568  and  _571
REMARK  233  A    between atoms: _571  and  _572
REMARK  234  A    between atoms: _572  and  _573
REMARK  235  A    between atoms: _576  and  _578
REMARK  236  A    between atoms: _578  and  _579
REMARK  237  A    between atoms: _578  and  _581
REMARK  238  A    between atoms: _581  and  _582
REMARK  239  A    between atoms: _587  and  _589
REMARK  240  A    between atoms: _589  and  _590
REMARK  241  A    between atoms: _589  and  _592
REMARK  242  A    between atoms: _592  and  _593
REMARK  243  A    between atoms: _595  and  _597
REMARK  244  A    between atoms: _597  and  _598
REMARK  245  A    between atoms: _597  and  _600
REMARK  246  A    between atoms: _600  and  _601
REMARK  247  A    between atoms: _601  and  _602
REMARK  248  A    between atoms: _607  and  _609
REMARK  249  A    between atoms: _609  and  _610
REMARK  250  A    between atoms: _609  and  _612
REMARK  251  A    between atoms: _612  and  _613
REMARK  252  A    between atoms: _618  and  _619
REMARK  253  A    between atoms: _621  and  _623
REMARK  254  A    between atoms: _623  and  _624
REMARK  255  A    between atoms: _623  and  _626
REMARK  256  A    between atoms: _626  and  _627
REMARK  257  A    between atoms: _627  and  _628
REMARK  258  A    between atoms: _628  and  _629
REMARK  259  A    between atoms: _638  and  _640
REMARK  260  A    between atoms: _640  and  _641
REMARK  261  A    between atoms: _640  and  _643
REMARK  262  A    between atoms: _643  and  _644
REMARK  263  A    between atoms: _647  and  _649
REMARK  264  A    between atoms: _649  and  _650
REMARK  265  A    between atoms: _649  and  _652
REMARK  266  A    between atoms: _652  and  _653
REMARK  267  A    between atoms: _655  and  _657
REMARK  268  A    between atoms: _657  and  _658
REMARK  269  A    between atoms: _657  and  _660
REMARK  270  A    between atoms: _660  and  _661
REMARK  271  A    between atoms: _666  and  _668
REMARK  272  A    between atoms: _668  and  _669
REMARK  273  A    between atoms: _668  and  _671
REMARK  274  A    between atoms: _671  and  _672
REMARK  275  A    between atoms: _672  and  _673
REMARK  276  A    between atoms: _673  and  _674
REMARK  277  A    between atoms: _674  and  _675
REMARK  278  A    between atoms: _679  and  _681
REMARK  279  A    between atoms: _681  and  _682
REMARK  280  A    between atoms: _681  and  _684
REMARK  281  A    between atoms: _684  and  _685
REMARK  282  A    between atoms: _688  and  _690
REMARK  283  A    between atoms: _690  and  _691
REMARK  284  A    between atoms: _690  and  _693
REMARK  285  A    between atoms: _693  and  _694
REMARK  286  A    between atoms: _697  and  _699
REMARK  287  A    between atoms: _699  and  _700
REMARK  288  A    between atoms: _699  and  _702
REMARK  289  A    between atoms: _705  and  _707
REMARK  290  A    between atoms: _707  and  _708
REMARK  291  A    between atoms: _707  and  _710
REMARK  292  A    between atoms: _710  and  _711
REMARK                            x       y       z     vdW  Elec       q    Type
REMARK                         _______ _______ _______ _____ _____    ______ ____
ROOT
ATOM      1  CA  LYS A   1      62.907   1.172   8.823  0.00  0.00    +0.145 C 
ENDROOT
BRANCH   1   2
ATOM      2  C   LYS A   1      61.669   0.301   8.779  0.00  0.00    +0.238 C 
ATOM      3  O   LYS A   1      60.856   0.287   9.730  0.00  0.00    -0.274 OA
ATOM      4  N   VAL A   2      61.478  -0.385   7.654  0.00  0.00    -0.298 N 
ATOM      5  H   VAL A   2      62.138  -0.264   6.859  0.00  0.00    +0.150 HD
BRANCH   4   6
ATOM      6  CA  VAL A   2      60.343  -1.312   7.524  0.00  0.00    +0.137 C 
BRANCH   6   7
ATOM      7  CB  VAL A   2      60.239  -1.894   6.097  0.00  0.00    +0.026 C 
ATOM      8  CG2 VAL A   2      59.325  -3.092   6.069  0.00  0.00    +0.002 C 
ATOM      9  CG1 VAL A   2      59.713  -0.819   5.144  0.00  0.00    +0.002 C 
ENDBRANCH   6   7
BRANCH   6  10
ATOM     10  C   VAL A   2      60.459  -2.448   8.567  0.00  0.00    +0.227 C 
ATOM     11  O   VAL A   2      59.444  -2.833   9.201  0.00  0.00    -0.286 OA
ENDBRANCH   6  10
ENDBRANCH   4   6
ENDBRANCH   1   2
BRANCH   1  12
ATOM     12  N   LYS A   1      64.050   0.537   8.142  0.00  0.00    -0.238 NA
ATOM     13  H   LYS A   1      64.392   0.927   7.240  0.00  0.00    +0.142 HD
ENDBRANCH   1  12
BRANCH   1  14
ATOM     14  CB  LYS A   1      62.610   2.544   8.180  0.00  0.00    +0.026 C 
BRANCH  14  15
ATOM     15  CG  LYS A   1      63.786   3.505   8.272  0.00  0.00    -0.000 C 
BRANCH  15  16
ATOM     16  CD  LYS A   1      64.166   3.754   9.754  0.00  0.00    -0.024 C 
BRANCH  16  17
ATOM     17  CE  LYS A   1      65.477   4.539   9.847  0.00  0.00    -0.086 C 
BRANCH  17  18
ATOM     18  NZ  LYS A   1      65.890   4.844  11.230  0.00  0.00    +0.380 N 
ATOM     19  HZ1 LYS A   1      66.023   3.956  11.755  0.00  0.00    -0.089 HD
ATOM     20  HZ2 LYS A   1      65.154   5.415  11.693  0.00  0.00    -0.089 HD
ATOM     21  HZ3 LYS A   1      66.784   5.376  11.214  0.00  0.00    -0.089 HD
ENDBRANCH  17  18
ENDBRANCH  16  17
ENDBRANCH  15  16
ENDBRANCH  14  15
ENDBRANCH   1  14
TORSDOF 10
REMARK  Name = ../refined-set-2016/1rjk/1rjk_pocket.pdb
REMARK  292 active torsions:
REMARK  status: ('A' for Active; 'I' for Inactive)
REMARK    1  A    between atoms: _1  and  _3
REMARK    2  A    between atoms: _3  and  _4
REMARK    3  A    between atoms: _3  and  _6
REMARK    4  A    between atoms: _6  and  _7
REMARK    5  A    between atoms: _10  and  _12
REMARK    6  A    between atoms: _12  and  _13
REMARK    7  A    between atoms: _12  and  _15
REMARK    8  A    between atoms: _15  and  _16
REMARK    9  A    between atoms: _21  and  _22
REMARK   10  A    between atoms: _24  and  _26
REMARK   11  A    between atoms: _26  and  _27
REMARK   12  A    between atoms: _26  and  _29
REMARK   13  A    between atoms: _29  and  _30
REMARK   14  A    between atoms: _34  and  _35
REMARK   15  A    between atoms: _40  and  _42
REMARK   16  A    between atoms: _42  and  _43
REMARK   17  A    between atoms: _42  and  _45
REMARK   18  A    between atoms: _45  and  _46
REMARK   19  A    between atoms: _51  and  _52
REMARK   20  A    between atoms: _54  and  _56
REMARK   21  A    between atoms: _56  and  _57
REMARK   22  A    between atoms: _56  and  _59
REMARK   23  A    between atoms: _59  and  _60
REMARK   24  A    between atoms: _66  and  _68
REMARK   25  A    between atoms: _68  and  _69
REMARK   26  A    between atoms: _68  and  _71
REMARK   27  A    between atoms: _71  and  _72
REMARK   28  A    between atoms: _78  and  _80
REMARK   29  A    between atoms: _80  and  _81
REMARK   30  A    between atoms: _80  and  _83
REMARK   31  A    between atoms: _83  and  _84
REMARK   32  A    between atoms: _84  and  _85
REMARK   33  A    between atoms: _85  and  _86
REMARK   34  A    between atoms: _95  and  _97
REMARK   35  A    between atoms: _97  and  _98
REMARK   36  A    between atoms: _97  and  _100
REMARK   37  A    between atoms: _100  and  _101
REMARK   38  A    between atoms: _104  and  _106
REMARK   39  A    between atoms: _106  and  _107
REMARK   40  A    between atoms: _106  and  _109
REMARK   41  A    between atoms: _109  and  _110
REMARK   42  A    between atoms: _110  and  _111
REMARK   43  A    between atoms: _113  and  _115
REMARK   44  A    between atoms: _115  and  _116
REMARK   45  A    between atoms: _115  and  _118
REMARK   46  A    between atoms: _118  and  _119
REMARK   47  A    between atoms: _123  and  _124
REMARK   48  A    between atoms: _129  and  _131
REMARK   49  A    between atoms: _131  and  _132
REMARK   50  A    between atoms: _131  and  _134
REMARK   51  A    between atoms: _134  and  _135
REMARK   52  A    between atoms: _140  and  _142
REMARK   53  A    between atoms: _142  and  _143
REMARK   54  A    between atoms: _142  and  _145
REMARK   55  A    between atoms: _145  and  _146
REMARK   56  A    between atoms: _149  and  _151
REMARK   57  A    between atoms: _151  and  _152
REMARK   58  A    between atoms: _155  and  _157
REMARK   59  A    between atoms: _157  and  _158
REMARK   60  A    between atoms: _157  and  _160
REMARK   61  A    between atoms: _160  and  _161
REMARK   62  A    between atoms: _164  and  _166
REMARK   63  A    between atoms: _166  and  _167
REMARK   64  A    between atoms: _166  and  _169
REMARK   65  A    between atoms: _169  and  _170
REMARK   66  A    between atoms: _173  and  _175
REMARK   67  A    between atoms: _175  and  _176
REMARK   68  A    between atoms: _175  and  _178
REMARK   69  A    between atoms: _181  and  _183
REMARK   70  A    between atoms: _183  and  _184
REMARK   71  A    between atoms: _183  and  _186
REMARK   72  A    between atoms: _186  and  _187
REMARK   73  A    between atoms: _189  and  _191
REMARK   74  A    between atoms: _191  and  _192
REMARK   75  A    between atoms: _191  and  _194
REMARK   76  A    between atoms: _194  and  _195
REMARK   77  A    between atoms: _200  and  _201
REMARK   78  A    between atoms: _203  and  _205
REMARK   79  A    between atoms: _205  and  _206
REMARK   80  A    between atoms: _205  and  _208
REMARK   81  A    between atoms: _208  and  _209
REMARK   82  A    between atoms: _211  and  _213
REMARK   83  A    between atoms: _213  and  _214
REMARK   84  A    between atoms: _213  and  _216
REMARK   85  A    between atoms: _216  and  _217
REMARK   86  A    between atoms: _220  and  _222
REMARK   87  A    between atoms: _222  and  _223
REMARK   88  A    between atoms: _222  and  _225
REMARK   89  A    between atoms: _225  and  _226
REMARK   90  A    between atoms: _226  and  _227
REMARK   91  A    between atoms: _227  and  _228
REMARK   92  A    between atoms: _228  and  _229
REMARK   93  A    between atoms: _233  and  _235
REMARK   94  A    between atoms: _235  and  _236
REMARK   95  A    between atoms: _235  and  _238
REMARK   96  A    between atoms: _241  and  _243
REMARK   97  A    between atoms: _243  and  _244
REMARK   98  A    between atoms: _247  and  _249
REMARK   99  A    between atoms: _249  and  _250
REMARK  100  A    between atoms: _249  and  _252
REMARK  101  A    between atoms: _252  and  _253
REMARK  102  A    between atoms: _256  and  _258
REMARK  103  A    between atoms: _258  and  _259
REMARK  104  A    between atoms: _258  and  _261
REMARK  105  A    between atoms: _261  and  _262
REMARK  106  A    between atoms: _262  and  _263
REMARK  107  A    between atoms: _266  and  _268
REMARK  108  A    between atoms: _268  and  _269
REMARK  109  A    between atoms: _268  and  _271
REMARK  110  A    between atoms: _274  and  _276
REMARK  111  A    between atoms: _276  and  _277
REMARK  112  A    between atoms: _276  and  _279
REMARK  113  A    between atoms: _279  and  _280
REMARK  114  A    between atoms: _283  and  _285
REMARK  115  A    between atoms: _285  and  _286
REMARK  116  A    between atoms: _285  and  _288
REMARK  117  A    between atoms: _288  and  _289
REMARK  118  A    between atoms: _289  and  _290
REMARK  119  A    between atoms: _292  and  _294
REMARK  120  A    between atoms: _294  and  _295
REMARK  121  A    between atoms: _294  and  _297
REMARK  122  A    between atoms: _297  and  _298
REMARK  123  A    between atoms: _301  and  _303
REMARK  124  A    between atoms: _303  and  _304
REMARK  125  A    between atoms: _303  and  _306
REMARK  126  A    between atoms: _306  and  _307
REMARK  127  A    between atoms: _307  and  _308
REMARK  128  A    between atoms: _308  and  _309
REMARK  129  A    between atoms: _318  and  _320
REMARK  130  A    between atoms: _320  and  _321
REMARK  131  A    between atoms: _320  and  _323
REMARK  132  A    between atoms: _323  and  _324
REMARK  133  A    between atoms: _326  and  _328
REMARK  134  A    between atoms: _328  and  _329
REMARK  135  A    between atoms: _328  and  _331
REMARK  136  A    between atoms: _331  and  _332
REMARK  137  A    between atoms: _337  and  _339
REMARK  138  A    between atoms: _339  and  _340
REMARK  139  A    between atoms: _339  and  _342
REMARK  140  A    between atoms: _342  and  _343
REMARK  141  A    between atoms: _343  and  _344
REMARK  142  A    between atoms: _349  and  _351
REMARK  143  A    between atoms: _351  and  _352
REMARK  144  A    between atoms: _351  and  _354
REMARK  145  A    between atoms: _354  and  _355
REMARK  146  A    between atoms: _357  and  _359
REMARK  147  A    between atoms: _359  and  _360
REMARK  148  A    between atoms: _359  and  _362
REMARK  149  A    between atoms: _362  and  _363
REMARK  150  A    between atoms: _369  and  _371
REMARK  151  A    between atoms: _371  and  _372
REMARK  152  A    between atoms: _371  and  _374
REMARK  153  A    between atoms: _374  and  _375
REMARK  154  A    between atoms: _377  and  _379
REMARK  155  A    between atoms: _379  and  _380
REMARK  156  A    between atoms: _379  and  _382
REMARK  157  A    between atoms: _382  and  _383
REMARK  158  A    between atoms: _393  and  _395
REMARK  159  A    between atoms: _395  and  _396
REMARK  160  A    between atoms: _395  and  _398
REMARK  161  A    between atoms: _398  and  _399
REMARK  162  A    between atoms: _402  and  _404
REMARK  163  A    between atoms: _404  and  _405
REMARK  164  A    between atoms: _404  and  _407
REMARK  165  A    between atoms: _409  and  _411
REMARK  166  A    between atoms: _411  and  _412
REMARK  167  A    between atoms: _411  and  _414
REMARK  168  A    between atoms: _414  and  _415
REMARK  169  A    between atoms: _420  and  _421
REMARK  170  A    between atoms: _423  and  _425
REMARK  171  A    between atoms: _425  and  _426
REMARK  172  A    between atoms: _425  and  _428
REMARK  173  A    between atoms: _428  and  _429
REMARK  174  A    between atoms: _429  and  _430
REMARK  175  A    between atoms: _430  and  _431
REMARK  176  A    between atoms: _431  and  _432
REMARK  177  A    between atoms: _436  and  _438
REMARK  178  A    between atoms: _438  and  _439
REMARK  179  A    between atoms: _438  and  _441
REMARK  180  A    between atoms: _441  and  _442
REMARK  181  A    between atoms: _447  and  _448
REMARK  182  A    between atoms: _450  and  _452
REMARK  183  A    between atoms: _452  and  _453
REMARK  184  A    between atoms: _452  and  _455
REMARK  185  A    between atoms: _455  and  _456
REMARK  186  A    between atoms: _459  and  _461
REMARK  187  A    between atoms: _461  and  _462
REMARK  188  A    between atoms: _461  and  _464
REMARK  189  A    between atoms: _464  and  _465
REMARK  190  A    between atoms: _468  and  _470
REMARK  191  A    between atoms: _470  and  _471
REMARK  192  A    between atoms: _470  and  _473
REMARK  193  A    between atoms: _476  and  _478
REMARK  194  A    between atoms: _478  and  _479
REMARK  195  A    between atoms: _478  and  _481
REMARK  196  A    between atoms: _481  and  _482
REMARK  197  A    between atoms: _484  and  _486
REMARK  198  A    between atoms: _486  and  _487
REMARK  199  A    between atoms: _490  and  _492
REMARK  200  A    between atoms: _492  and  _493
REMARK  201  A    between atoms: _495  and  _497
REMARK  202  A    between atoms: _497  and  _498
REMARK  203  A    between atoms: _497  and  _500
REMARK  204  A    between atoms: _500  and  _501
REMARK  205  A    between atoms: _506  and  _508
REMARK  206  A    between atoms: _508  and  _509
REMARK  207  A    between atoms: _508  and  _511
REMARK  208  A    between atoms: _511  and  _512
REMARK  209  A    between atoms: _515  and  _517
REMARK  210  A    between atoms: _517  and  _518
REMARK  211  A    between atoms: _517  and  _520
REMARK  212  A    between atoms: _520  and  _521
REMARK  213  A    between atoms: _524  and  _526
REMARK  214  A    between atoms: _526  and  _527
REMARK  215  A    between atoms: _526  and  _529
REMARK  216  A    between atoms: _529  and  _530
REMARK  217  A    between atoms: _533  and  _535
REMARK  218  A    between atoms: _535  and  _536
REMARK  219  A    between atoms: _535  and  _538
REMARK  220  A    between atoms: _538  and  _539
REMARK  221  A    between atoms: _545  and  _547
REMARK  222  A    between atoms: _547  and  _548
REMARK  223  A    between atoms: _547  and  _550
REMARK  224  A    between atoms: _550  and  _551
REMARK  225  A    between atoms: _551  and  _552
REMARK  226  A    between atoms: _557  and  _559
REMARK  227  A    between atoms: _559  and  _560
REMARK  228  A    between atoms: _559  and  _562
REMARK  229  A    between atoms: _562  and  _563
REMARK  230  A    between atoms: _566  and  _568
REMARK  231  A    between atoms: _568  and  _569
REMARK  232  A    between atoms: _568  and  _571
REMARK  233  A    between atoms: _571  and  _572
REMARK  234  A    between atoms: _572  and  _573
REMARK  235  A    between atoms: _576  and  _578
REMARK  236  A    between atoms: _578  and  _579
REMARK  237  A    between atoms: _578  and  _581
REMARK  238  A    between atoms: _581  and  _582
REMARK  239  A    between atoms: _587  and  _589
REMARK  240  A    between atoms: _589  and  _590
REMARK  241  A    between atoms: _589  and  _592
REMARK  242  A    between atoms: _592  and  _593
REMARK  243  A    between atoms: _595  and  _597
REMARK  244  A    between atoms: _597  and  _598
REMARK  245  A    between atoms: _597  and  _600
REMARK  246  A    between atoms: _600  and  _601
REMARK  247  A    between atoms: _601  and  _602
REMARK  248  A    between atoms: _607  and  _609
REMARK  249  A    between atoms: _609  and  _610
REMARK  250  A    between atoms: _609  and  _612
REMARK  251  A    between atoms: _612  and  _613
REMARK  252  A    between atoms: _618  and  _619
REMARK  253  A    between atoms: _621  and  _623
REMARK  254  A    between atoms: _623  and  _624
REMARK  255  A    between atoms: _623  and  _626
REMARK  256  A    between atoms: _626  and  _627
REMARK  257  A    between atoms: _627  and  _628
REMARK  258  A    between atoms: _628  and  _629
REMARK  259  A    between atoms: _638  and  _640
REMARK  260  A    between atoms: _640  and  _641
REMARK  261  A    between atoms: _640  and  _643
REMARK  262  A    between atoms: _643  and  _644
REMARK  263  A    between atoms: _647  and  _649
REMARK  264  A    between atoms: _649  and  _650
REMARK  265  A    between atoms: _649  and  _652
REMARK  266  A    between atoms: _652  and  _653
REMARK  267  A    between atoms: _655  and  _657
REMARK  268  A    between atoms: _657  and  _658
REMARK  269  A    between atoms: _657  and  _660
REMARK  270  A    between atoms: _660  and  _661
REMARK  271  A    between atoms: _666  and  _668
REMARK  272  A    between atoms: _668  and  _669
REMARK  273  A    between atoms: _668  and  _671
REMARK  274  A    between atoms: _671  and  _672
REMARK  275  A    between atoms: _672  and  _673
REMARK  276  A    between atoms: _673  and  _674
REMARK  277  A    between atoms: _674  and  _675
REMARK  278  A    between atoms: _679  and  _681
REMARK  279  A    between atoms: _681  and  _682
REMARK  280  A    between atoms: _681  and  _684
REMARK  281  A    between atoms: _684  and  _685
REMARK  282  A    between atoms: _688  and  _690
REMARK  283  A    between atoms: _690  and  _691
REMARK  284  A    between atoms: _690  and  _693
REMARK  285  A    between atoms: _693  and  _694
REMARK  286  A    between atoms: _697  and  _699
REMARK  287  A    between atoms: _699  and  _700
REMARK  288  A    between atoms: _699  and  _702
REMARK  289  A    between atoms: _705  and  _707
REMARK  290  A    between atoms: _707  and  _708
REMARK  291  A    between atoms: _707  and  _710
REMARK  292  A    between atoms: _710  and  _711
REMARK                            x       y       z     vdW  Elec       q    Type
REMARK                         _______ _______ _______ _____ _____    ______ ____
ROOT
ATOM      1  CA  ARG A   8      55.199   3.943   2.877  0.00  0.00    +0.149 C 
ENDROOT
BRANCH   1   2
ATOM      2  C   ARG A   8      55.615   5.159   2.060  0.00  0.00    +0.241 C 
ATOM      3  O   ARG A   8      55.460   6.286   2.541  0.00  0.00    -0.273 OA
ATOM      4  N   SER A   9      56.146   4.925   0.849  0.00  0.00    -0.295 N 
ATOM      5  H   SER A   9      56.278   3.942   0.537  0.00  0.00    +0.150 HD
BRANCH   4   6
ATOM      6  CA  SER A   9      56.549   6.027  -0.055  0.00  0.00    +0.178 C 
BRANCH   6   7
ATOM      7  C   SER A   9      55.378   6.899  -0.505  0.00  0.00    +0.243 C 
ATOM      8  N   ASN A  10      54.154   6.412  -0.343  0.00  0.00    -0.297 N 
ATOM      9  H   ASN A  10      54.025   5.452   0.037  0.00  0.00    +0.150 HD
ATOM     10  O   SER A   9      55.590   8.019  -1.015  0.00  0.00    -0.273 OA
BRANCH   8  11
ATOM     11  CA  ASN A  10      52.987   7.216  -0.695  0.00  0.00    +0.158 C 
BRANCH  11  12
ATOM     12  C   ASN A  10      52.916   8.537   0.101  0.00  0.00    +0.241 C 
ATOM     13  N   GLN A  11      53.494   8.553   1.308  0.00  0.00    -0.297 N 
ATOM     14  H   GLN A  11      53.916   7.675   1.673  0.00  0.00    +0.150 HD
ATOM     15  O   ASN A  10      52.348   9.514  -0.380  0.00  0.00    -0.273 OA
BRANCH  13  16
ATOM     16  CA  GLN A  11      53.553   9.752   2.127  0.00  0.00    +0.149 C 
BRANCH  16  17
ATOM     17  C   GLN A  11      54.385  10.882   1.494  0.00  0.00    +0.241 C 
ATOM     18  O   GLN A  11      54.092  12.058   1.699  0.00  0.00    -0.273 OA
ATOM     19  N   SER A  12      55.432  10.545   0.754  0.00  0.00    -0.295 N 
ATOM     20  H   SER A  12      55.701   9.545   0.657  0.00  0.00    +0.150 HD
BRANCH  19  21
ATOM     21  CA  SER A  12      56.205  11.575   0.077  0.00  0.00    +0.178 C 
BRANCH  21  22
ATOM     22  C   SER A  12      55.730  11.824  -1.357  0.00  0.00    +0.243 C 
ATOM     23  N   PHE A  13      54.992  10.863  -1.900  0.00  0.00    -0.298 N 
ATOM     24  H   PHE A  13      54.746  10.030  -1.327  0.00  0.00    +0.150 HD
ATOM     25  O   SER A  12      56.069  12.852  -1.967  0.00  0.00    -0.273 OA
BRANCH  23  26
ATOM     26  CA  PHE A  13      54.520  10.941  -3.266  0.00  0.00    +0.141 C 
BRANCH  26  27
ATOM     27  C   PHE A  13      53.564  12.131  -3.459  0.00  0.00    +0.227 C 
ATOM     28  O   PHE A  13      52.698  12.367  -2.631  0.00  0.00    -0.286 OA
ENDBRANCH  26  27
BRANCH  26  29
ATOM     29  CB  PHE A  13      53.797   9.652  -3.665  0.00  0.00    +0.054 C 
BRANCH  29  30
ATOM     30  CG  PHE A  13      53.420   9.610  -5.130  0.00  0.00    -0.020 A 
ATOM     31  CD2 PHE A  13      52.113   9.914  -5.534  0.00  0.00    -0.004 A 
ATOM     32  CE2 PHE A  13      51.758   9.902  -6.898  0.00  0.00    -0.000 A 
ATOM     33  CZ  PHE A  13      52.720   9.611  -7.868  0.00  0.00    -0.000 A 
ATOM     34  CE1 PHE A  13      54.034   9.335  -7.479  0.00  0.00    -0.000 A 
ATOM     35  CD1 PHE A  13      54.378   9.331  -6.103  0.00  0.00    -0.004 A 
ENDBRANCH  29  30
ENDBRANCH  26  29
ENDBRANCH  23  26
ENDBRANCH  21  22
BRANCH  21  36
ATOM     36  CB  SER A  12      57.690  11.237   0.080  0.00  0.00    +0.166 C 
BRANCH  36  37
ATOM     37  OG  SER A  12      57.973  10.170  -0.803  0.00  0.00    -0.380 OA
ATOM     38  H   SER A  12      57.465   9.368  -0.523  0.00  0.00    +0.211 HD
ENDBRANCH  36  37
ENDBRANCH  21  36
ENDBRANCH  19  21
ENDBRANCH  16  17
BRANCH  16  39
ATOM     39  CB  GLN A  11      54.110   9.393   3.518  0.00  0.00    +0.039 C 
BRANCH  39  40
ATOM     40  CG  GLN A  11      54.214  10.567   4.496  0.00  0.00    +0.087 C 
BRANCH  40  41
ATOM     41  CD  GLN A  11      54.201  10.134   5.969  0.00  0.00    +0.219 C 
ATOM     42  OE1 GLN A  11      54.309  10.991   6.875  0.00  0.00    -0.275 OA
ATOM     43  NE2 GLN A  11      54.065   8.830   6.216  0.00  0.00    -0.329 N 
ATOM     44 HE21 GLN A  11      54.045   8.486   7.197  0.00  0.00    +0.145 HD
ATOM     45 HE22 GLN A  11      53.979   8.158   5.427  0.00  0.00    +0.145 HD
ENDBRANCH  40  41
ENDBRANCH  39  40
ENDBRANCH  16  39
ENDBRANCH  13  16
ENDBRANCH  11  12
BRANCH  11  46
ATOM     46  CB  ASN A  10      51.693   6.424  -0.516  0.00  0.00    +0.114 C 
BRANCH  46  47
ATOM     47  CG  ASN A  10      50.499   7.056  -1.245  0.00  0.00    +0.222 C 
ATOM     48  OD1 ASN A  10      49.521   7.419  -0.617  0.00  0.00    -0.275 OA
ATOM     49  ND2 ASN A  10      50.578   7.162  -2.579  0.00  0.00    -0.329 N 
ATOM     50 HD21 ASN A  10      51.432   6.839  -3.077  0.00  0.00    +0.145 HD
ATOM     51 HD22 ASN A  10      49.785   7.567  -3.116  0.00  0.00    +0.145 HD
ENDBRANCH  46  47
ENDBRANCH  11  46
ENDBRANCH   8  11
ENDBRANCH   6   7
BRANCH   6  52
ATOM     52  CB  SER A   9      57.305   5.516  -1.288  0.00  0.00    +0.166 C 
BRANCH  52  53
ATOM     53  OG  SER A   9      56.378   5.083  -2.295  0.00  0.00    -0.380 OA
ATOM     54  H   SER A   9      55.817   4.352  -1.933  0.00  0.00    +0.211 HD
ENDBRANCH  52  53
ENDBRANCH   6  52
ENDBRANCH   4   6
ENDBRANCH   1   2
BRANCH   1  56
ATOM     55  C   LEU A   7      53.678   2.989   1.270  0.00  0.00    +0.241 C 
ATOM     56  N   ARG A   8      54.783   2.853   1.996  0.00  0.00    -0.297 N 
ATOM     57  H   ARG A   8      55.346   1.980   1.938  0.00  0.00    +0.150 HD
ATOM     58  O   LEU A   7      53.048   4.060   1.197  0.00  0.00    -0.273 OA
BRANCH  55  59
ATOM     59  CA  LEU A   7      53.204   1.760   0.500  0.00  0.00    +0.149 C 
BRANCH  59  61
ATOM     60  C   MET A   6      54.845   1.864  -1.310  0.00  0.00    +0.241 C 
ATOM     61  N   LEU A   7      54.269   1.161  -0.318  0.00  0.00    -0.297 N 
ATOM     62  H   LEU A   7      54.579   0.187  -0.128  0.00  0.00    +0.150 HD
ATOM     63  O   MET A   6      54.516   3.030  -1.609  0.00  0.00    -0.273 OA
BRANCH  60  64
ATOM     64  CA  MET A   6      55.975   1.191  -2.073  0.00  0.00    +0.149 C 
BRANCH  64  67
ATOM     65  C   ILE A   5      57.600   1.327  -0.274  0.00  0.00    +0.241 C 
ATOM     66  O   ILE A   5      57.450   2.575  -0.197  0.00  0.00    -0.273 OA
ATOM     67  N   MET A   6      56.962   0.579  -1.168  0.00  0.00    -0.297 N 
ATOM     68  H   MET A   6      57.160  -0.440  -1.229  0.00  0.00    +0.150 HD
BRANCH  65  69
ATOM     69  CA  ILE A   5      58.509   0.575   0.699  0.00  0.00    +0.149 C 
BRANCH  69  72
ATOM     70  C   VAL A   4      56.683  -0.524   1.884  0.00  0.00    +0.241 C 
ATOM     71  O   VAL A   4      56.249   0.549   2.265  0.00  0.00    -0.273 OA
ATOM     72  N   ILE A   5      57.809  -0.629   1.180  0.00  0.00    -0.297 N 
ATOM     73  H   ILE A   5      58.198  -1.570   0.968  0.00  0.00    +0.150 HD
BRANCH  70  74
ATOM     74  CA  VAL A   4      55.918  -1.796   2.251  0.00  0.00    +0.149 C 
BRANCH  74  76
ATOM     75  C   GLU A   3      55.463  -2.603  -0.004  0.00  0.00    +0.241 C 
ATOM     76  N   VAL A   4      56.035  -2.810   1.182  0.00  0.00    -0.297 N 
ATOM     77  H   VAL A   4      56.565  -3.688   1.356  0.00  0.00    +0.150 HD
ATOM     78  O   GLU A   3      54.803  -1.606  -0.268  0.00  0.00    -0.273 OA
BRANCH  75  79
ATOM     79  CA  GLU A   3      55.670  -3.652  -1.078  0.00  0.00    +0.149 C 
BRANCH  79  81
ATOM     80  C   ILE A   2      58.055  -3.239  -1.492  0.00  0.00    +0.241 C 
ATOM     81  N   GLU A   3      57.079  -4.063  -1.122  0.00  0.00    -0.297 N 
ATOM     82  H   GLU A   3      57.323  -5.037  -0.853  0.00  0.00    +0.150 HD
ATOM     83  O   ILE A   2      57.852  -2.083  -1.847  0.00  0.00    -0.273 OA
BRANCH  80  84
ATOM     84  CA  ILE A   2      59.494  -3.817  -1.476  0.00  0.00    +0.148 C 
BRANCH  84  87
ATOM     85  C   ALA A   1      59.625  -4.330   0.896  0.00  0.00    +0.238 C 
ATOM     86  O   ALA A   1      59.352  -3.171   1.180  0.00  0.00    -0.274 OA
ATOM     87  N   ILE A   2      59.724  -4.755  -0.369  0.00  0.00    -0.297 N 
ATOM     88  H   ILE A   2      59.963  -5.747  -0.568  0.00  0.00    +0.150 HD
BRANCH  85  89
ATOM     89  CA  ALA A   1      59.892  -5.354   2.024  0.00  0.00    +0.145 C 
ATOM     90  CB  ALA A   1      61.367  -5.675   2.119  0.00  0.00    +0.028 C 
BRANCH  89  91
ATOM     91  N   ALA A   1      59.072  -6.563   1.891  0.00  0.00    -0.238 NA
ATOM     92  H   ALA A   1      59.517  -7.500   1.966  0.00  0.00    +0.142 HD
ENDBRANCH  89  91
ENDBRANCH  85  89
ENDBRANCH  84  87
BRANCH  84  93
ATOM     93  CB  ILE A   2      59.852  -4.464  -2.860  0.00  0.00    +0.027 C 
ATOM     94  CG2 ILE A   2      58.791  -5.524  -3.301  0.00  0.00    +0.002 C 
BRANCH  93  95
ATOM     95  CG1 ILE A   2      60.041  -3.399  -3.937  0.00  0.00    +0.002 C 
ATOM     96  CD1 ILE A   2      61.247  -2.502  -3.710  0.00  0.00    +0.000 C 
ENDBRANCH  93  95
ENDBRANCH  84  93
ENDBRANCH  80  84
ENDBRANCH  79  81
BRANCH  79  97
ATOM     97  CB  GLU A   3      54.754  -4.833  -0.823  0.00  0.00    +0.041 C 
BRANCH  97  98
ATOM     98  CG  GLU A   3      54.858  -5.931  -1.894  0.00  0.00    +0.116 C 
BRANCH  98  99
ATOM     99  CD  GLU A   3      53.849  -7.038  -1.657  0.00  0.00    +0.365 C 
ATOM    100  OE2 GLU A   3      52.929  -6.850  -0.844  0.00  0.00    -0.246 OA
ATOM    101  OE1 GLU A   3      53.978  -8.108  -2.263  0.00  0.00    -0.246 OA
ENDBRANCH  98  99
ENDBRANCH  97  98
ENDBRANCH  79  97
ENDBRANCH  75  79
ENDBRANCH  74  76
BRANCH  74 102
ATOM    102  CB  VAL A   4      56.397  -2.303   3.615  0.00  0.00    +0.027 C 
ATOM    103  CG2 VAL A   4      56.041  -1.333   4.734  0.00  0.00    +0.002 C 
ATOM    104  CG1 VAL A   4      55.753  -3.718   3.947  0.00  0.00    +0.002 C 
ENDBRANCH  74 102
ENDBRANCH  70  74
ENDBRANCH  69  72
BRANCH  69 105
ATOM    105  CB  ILE A   5      59.875   0.229   0.094  0.00  0.00    +0.027 C 
ATOM    106  CG2 ILE A   5      60.497   1.504  -0.617  0.00  0.00    +0.002 C 
BRANCH 105 107
ATOM    107  CG1 ILE A   5      60.791  -0.324   1.193  0.00  0.00    +0.002 C 
ATOM    108  CD1 ILE A   5      62.134  -0.884   0.701  0.00  0.00    +0.000 C 
ENDBRANCH 105 107
ENDBRANCH  69 105
ENDBRANCH  65  69
ENDBRANCH  64  67
BRANCH  64 109
ATOM    109  CB  MET A   6      55.440   0.188  -3.094  0.00  0.00    +0.041 C 
BRANCH 109 110
ATOM    110  CG  MET A   6      56.546  -0.237  -4.099  0.00  0.00    +0.060 C 
BRANCH 110 111
ATOM    111  SD  MET A   6      55.969  -1.576  -5.143  0.00  0.00    -0.139 S 
ATOM    112  CE  MET A   6      57.439  -1.898  -6.131  0.00  0.00    +0.069 C 
ENDBRANCH 110 111
ENDBRANCH 109 110
ENDBRANCH  64 109
ENDBRANCH  60  64
ENDBRANCH  59  61
BRANCH  59 113
ATOM    113  CB  LEU A   7      52.570   0.770   1.498  0.00  0.00    +0.029 C 
BRANCH 113 114
ATOM    114  CG  LEU A   7      51.683  -0.340   0.935  0.00  0.00    +0.002 C 
ATOM    115  CD2 LEU A   7      51.428  -1.454   1.954  0.00  0.00    +0.000 C 
ATOM    116  CD1 LEU A   7      50.349   0.253   0.455  0.00  0.00    +0.000 C 
ENDBRANCH 113 114
ENDBRANCH  59 113
ENDBRANCH  55  59
ENDBRANCH   1  56
BRANCH   1 117
ATOM    117  CB  ARG A   8      56.328   3.522   3.822  0.00  0.00    +0.033 C 
BRANCH 117 118
ATOM    118  CG  ARG A   8      57.669   3.297   3.154  0.00  0.00    +0.045 C 
BRANCH 118 119
ATOM    119  CD  ARG A   8      58.637   2.385   3.945  0.00  0.00    +0.174 C 
BRANCH 119 120
ATOM    120  NE  ARG A   8      58.694   2.726   5.384  0.00  0.00    -0.265 N 
ATOM    121  HE  ARG A   8      58.008   2.263   6.014  0.00  0.00    +0.259 HD
ATOM    122  CZ  ARG A   8      59.559   3.584   5.938  0.00  0.00    +0.342 C 
ATOM    123  NH2 ARG A   8      59.471   3.840   7.255  0.00  0.00    -0.292 N 
ATOM    124 HH21 ARG A   8      58.739   3.374   7.828  0.00  0.00    +0.255 HD
ATOM    125 HH22 ARG A   8      60.135   4.504   7.701  0.00  0.00    +0.255 HD
ATOM    126  NH1 ARG A   8      60.469   4.228   5.195  0.00  0.00    -0.292 N 
ATOM    127 HH11 ARG A   8      61.132   4.891   5.644  0.00  0.00    +0.255 HD
ATOM    128 HH12 ARG A   8      60.512   4.065   4.169  0.00  0.00    +0.255 HD
ENDBRANCH 119 120
ENDBRANCH 118 119
ENDBRANCH 117 118
ENDBRANCH   1 117
TORSDOF 54
REMARK  Name = ../refined-set-2016/1rjk/1rjk_pocket.pdb
REMARK  292 active torsions:
REMARK  status: ('A' for Active; 'I' for Inactive)
REMARK    1  A    between atoms: _1  and  _3
REMARK    2  A    between atoms: _3  and  _4
REMARK    3  A    between atoms: _3  and  _6
REMARK    4  A    between atoms: _6  and  _7
REMARK    5  A    between atoms: _10  and  _12
REMARK    6  A    between atoms: _12  and  _13
REMARK    7  A    between atoms: _12  and  _15
REMARK    8  A    between atoms: _15  and  _16
REMARK    9  A    between atoms: _21  and  _22
REMARK   10  A    between atoms: _24  and  _26
REMARK   11  A    between atoms: _26  and  _27
REMARK   12  A    between atoms: _26  and  _29
REMARK   13  A    between atoms: _29  and  _30
REMARK   14  A    between atoms: _34  and  _35
REMARK   15  A    between atoms: _40  and  _42
REMARK   16  A    between atoms: _42  and  _43
REMARK   17  A    between atoms: _42  and  _45
REMARK   18  A    between atoms: _45  and  _46
REMARK   19  A    between atoms: _51  and  _52
REMARK   20  A    between atoms: _54  and  _56
REMARK   21  A    between atoms: _56  and  _57
REMARK   22  A    between atoms: _56  and  _59
REMARK   23  A    between atoms: _59  and  _60
REMARK   24  A    between atoms: _66  and  _68
REMARK   25  A    between atoms: _68  and  _69
REMARK   26  A    between atoms: _68  and  _71
REMARK   27  A    between atoms: _71  and  _72
REMARK   28  A    between atoms: _78  and  _80
REMARK   29  A    between atoms: _80  and  _81
REMARK   30  A    between atoms: _80  and  _83
REMARK   31  A    between atoms: _83  and  _84
REMARK   32  A    between atoms: _84  and  _85
REMARK   33  A    between atoms: _85  and  _86
REMARK   34  A    between atoms: _95  and  _97
REMARK   35  A    between atoms: _97  and  _98
REMARK   36  A    between atoms: _97  and  _100
REMARK   37  A    between atoms: _100  and  _101
REMARK   38  A    between atoms: _104  and  _106
REMARK   39  A    between atoms: _106  and  _107
REMARK   40  A    between atoms: _106  and  _109
REMARK   41  A    between atoms: _109  and  _110
REMARK   42  A    between atoms: _110  and  _111
REMARK   43  A    between atoms: _113  and  _115
REMARK   44  A    between atoms: _115  and  _116
REMARK   45  A    between atoms: _115  and  _118
REMARK   46  A    between atoms: _118  and  _119
REMARK   47  A    between atoms: _123  and  _124
REMARK   48  A    between atoms: _129  and  _131
REMARK   49  A    between atoms: _131  and  _132
REMARK   50  A    between atoms: _131  and  _134
REMARK   51  A    between atoms: _134  and  _135
REMARK   52  A    between atoms: _140  and  _142
REMARK   53  A    between atoms: _142  and  _143
REMARK   54  A    between atoms: _142  and  _145
REMARK   55  A    between atoms: _145  and  _146
REMARK   56  A    between atoms: _149  and  _151
REMARK   57  A    between atoms: _151  and  _152
REMARK   58  A    between atoms: _155  and  _157
REMARK   59  A    between atoms: _157  and  _158
REMARK   60  A    between atoms: _157  and  _160
REMARK   61  A    between atoms: _160  and  _161
REMARK   62  A    between atoms: _164  and  _166
REMARK   63  A    between atoms: _166  and  _167
REMARK   64  A    between atoms: _166  and  _169
REMARK   65  A    between atoms: _169  and  _170
REMARK   66  A    between atoms: _173  and  _175
REMARK   67  A    between atoms: _175  and  _176
REMARK   68  A    between atoms: _175  and  _178
REMARK   69  A    between atoms: _181  and  _183
REMARK   70  A    between atoms: _183  and  _184
REMARK   71  A    between atoms: _183  and  _186
REMARK   72  A    between atoms: _186  and  _187
REMARK   73  A    between atoms: _189  and  _191
REMARK   74  A    between atoms: _191  and  _192
REMARK   75  A    between atoms: _191  and  _194
REMARK   76  A    between atoms: _194  and  _195
REMARK   77  A    between atoms: _200  and  _201
REMARK   78  A    between atoms: _203  and  _205
REMARK   79  A    between atoms: _205  and  _206
REMARK   80  A    between atoms: _205  and  _208
REMARK   81  A    between atoms: _208  and  _209
REMARK   82  A    between atoms: _211  and  _213
REMARK   83  A    between atoms: _213  and  _214
REMARK   84  A    between atoms: _213  and  _216
REMARK   85  A    between atoms: _216  and  _217
REMARK   86  A    between atoms: _220  and  _222
REMARK   87  A    between atoms: _222  and  _223
REMARK   88  A    between atoms: _222  and  _225
REMARK   89  A    between atoms: _225  and  _226
REMARK   90  A    between atoms: _226  and  _227
REMARK   91  A    between atoms: _227  and  _228
REMARK   92  A    between atoms: _228  and  _229
REMARK   93  A    between atoms: _233  and  _235
REMARK   94  A    between atoms: _235  and  _236
REMARK   95  A    between atoms: _235  and  _238
REMARK   96  A    between atoms: _241  and  _243
REMARK   97  A    between atoms: _243  and  _244
REMARK   98  A    between atoms: _247  and  _249
REMARK   99  A    between atoms: _249  and  _250
REMARK  100  A    between atoms: _249  and  _252
REMARK  101  A    between atoms: _252  and  _253
REMARK  102  A    between atoms: _256  and  _258
REMARK  103  A    between atoms: _258  and  _259
REMARK  104  A    between atoms: _258  and  _261
REMARK  105  A    between atoms: _261  and  _262
REMARK  106  A    between atoms: _262  and  _263
REMARK  107  A    between atoms: _266  and  _268
REMARK  108  A    between atoms: _268  and  _269
REMARK  109  A    between atoms: _268  and  _271
REMARK  110  A    between atoms: _274  and  _276
REMARK  111  A    between atoms: _276  and  _277
REMARK  112  A    between atoms: _276  and  _279
REMARK  113  A    between atoms: _279  and  _280
REMARK  114  A    between atoms: _283  and  _285
REMARK  115  A    between atoms: _285  and  _286
REMARK  116  A    between atoms: _285  and  _288
REMARK  117  A    between atoms: _288  and  _289
REMARK  118  A    between atoms: _289  and  _290
REMARK  119  A    between atoms: _292  and  _294
REMARK  120  A    between atoms: _294  and  _295
REMARK  121  A    between atoms: _294  and  _297
REMARK  122  A    between atoms: _297  and  _298
REMARK  123  A    between atoms: _301  and  _303
REMARK  124  A    between atoms: _303  and  _304
REMARK  125  A    between atoms: _303  and  _306
REMARK  126  A    between atoms: _306  and  _307
REMARK  127  A    between atoms: _307  and  _308
REMARK  128  A    between atoms: _308  and  _309
REMARK  129  A    between atoms: _318  and  _320
REMARK  130  A    between atoms: _320  and  _321
REMARK  131  A    between atoms: _320  and  _323
REMARK  132  A    between atoms: _323  and  _324
REMARK  133  A    between atoms: _326  and  _328
REMARK  134  A    between atoms: _328  and  _329
REMARK  135  A    between atoms: _328  and  _331
REMARK  136  A    between atoms: _331  and  _332
REMARK  137  A    between atoms: _337  and  _339
REMARK  138  A    between atoms: _339  and  _340
REMARK  139  A    between atoms: _339  and  _342
REMARK  140  A    between atoms: _342  and  _343
REMARK  141  A    between atoms: _343  and  _344
REMARK  142  A    between atoms: _349  and  _351
REMARK  143  A    between atoms: _351  and  _352
REMARK  144  A    between atoms: _351  and  _354
REMARK  145  A    between atoms: _354  and  _355
REMARK  146  A    between atoms: _357  and  _359
REMARK  147  A    between atoms: _359  and  _360
REMARK  148  A    between atoms: _359  and  _362
REMARK  149  A    between atoms: _362  and  _363
REMARK  150  A    between atoms: _369  and  _371
REMARK  151  A    between atoms: _371  and  _372
REMARK  152  A    between atoms: _371  and  _374
REMARK  153  A    between atoms: _374  and  _375
REMARK  154  A    between atoms: _377  and  _379
REMARK  155  A    between atoms: _379  and  _380
REMARK  156  A    between atoms: _379  and  _382
REMARK  157  A    between atoms: _382  and  _383
REMARK  158  A    between atoms: _393  and  _395
REMARK  159  A    between atoms: _395  and  _396
REMARK  160  A    between atoms: _395  and  _398
REMARK  161  A    between atoms: _398  and  _399
REMARK  162  A    between atoms: _402  and  _404
REMARK  163  A    between atoms: _404  and  _405
REMARK  164  A    between atoms: _404  and  _407
REMARK  165  A    between atoms: _409  and  _411
REMARK  166  A    between atoms: _411  and  _412
REMARK  167  A    between atoms: _411  and  _414
REMARK  168  A    between atoms: _414  and  _415
REMARK  169  A    between atoms: _420  and  _421
REMARK  170  A    between atoms: _423  and  _425
REMARK  171  A    between atoms: _425  and  _426
REMARK  172  A    between atoms: _425  and  _428
REMARK  173  A    between atoms: _428  and  _429
REMARK  174  A    between atoms: _429  and  _430
REMARK  175  A    between atoms: _430  and  _431
REMARK  176  A    between atoms: _431  and  _432
REMARK  177  A    between atoms: _436  and  _438
REMARK  178  A    between atoms: _438  and  _439
REMARK  179  A    between atoms: _438  and  _441
REMARK  180  A    between atoms: _441  and  _442
REMARK  181  A    between atoms: _447  and  _448
REMARK  182  A    between atoms: _450  and  _452
REMARK  183  A    between atoms: _452  and  _453
REMARK  184  A    between atoms: _452  and  _455
REMARK  185  A    between atoms: _455  and  _456
REMARK  186  A    between atoms: _459  and  _461
REMARK  187  A    between atoms: _461  and  _462
REMARK  188  A    between atoms: _461  and  _464
REMARK  189  A    between atoms: _464  and  _465
REMARK  190  A    between atoms: _468  and  _470
REMARK  191  A    between atoms: _470  and  _471
REMARK  192  A    between atoms: _470  and  _473
REMARK  193  A    between atoms: _476  and  _478
REMARK  194  A    between atoms: _478  and  _479
REMARK  195  A    between atoms: _478  and  _481
REMARK  196  A    between atoms: _481  and  _482
REMARK  197  A    between atoms: _484  and  _486
REMARK  198  A    between atoms: _486  and  _487
REMARK  199  A    between atoms: _490  and  _492
REMARK  200  A    between atoms: _492  and  _493
REMARK  201  A    between atoms: _495  and  _497
REMARK  202  A    between atoms: _497  and  _498
REMARK  203  A    between atoms: _497  and  _500
REMARK  204  A    between atoms: _500  and  _501
REMARK  205  A    between atoms: _506  and  _508
REMARK  206  A    between atoms: _508  and  _509
REMARK  207  A    between atoms: _508  and  _511
REMARK  208  A    between atoms: _511  and  _512
REMARK  209  A    between atoms: _515  and  _517
REMARK  210  A    between atoms: _517  and  _518
REMARK  211  A    between atoms: _517  and  _520
REMARK  212  A    between atoms: _520  and  _521
REMARK  213  A    between atoms: _524  and  _526
REMARK  214  A    between atoms: _526  and  _527
REMARK  215  A    between atoms: _526  and  _529
REMARK  216  A    between atoms: _529  and  _530
REMARK  217  A    between atoms: _533  and  _535
REMARK  218  A    between atoms: _535  and  _536
REMARK  219  A    between atoms: _535  and  _538
REMARK  220  A    between atoms: _538  and  _539
REMARK  221  A    between atoms: _545  and  _547
REMARK  222  A    between atoms: _547  and  _548
REMARK  223  A    between atoms: _547  and  _550
REMARK  224  A    between atoms: _550  and  _551
REMARK  225  A    between atoms: _551  and  _552
REMARK  226  A    between atoms: _557  and  _559
REMARK  227  A    between atoms: _559  and  _560
REMARK  228  A    between atoms: _559  and  _562
REMARK  229  A    between atoms: _562  and  _563
REMARK  230  A    between atoms: _566  and  _568
REMARK  231  A    between atoms: _568  and  _569
REMARK  232  A    between atoms: _568  and  _571
REMARK  233  A    between atoms: _571  and  _572
REMARK  234  A    between atoms: _572  and  _573
REMARK  235  A    between atoms: _576  and  _578
REMARK  236  A    between atoms: _578  and  _579
REMARK  237  A    between atoms: _578  and  _581
REMARK  238  A    between atoms: _581  and  _582
REMARK  239  A    between atoms: _587  and  _589
REMARK  240  A    between atoms: _589  and  _590
REMARK  241  A    between atoms: _589  and  _592
REMARK  242  A    between atoms: _592  and  _593
REMARK  243  A    between atoms: _595  and  _597
REMARK  244  A    between atoms: _597  and  _598
REMARK  245  A    between atoms: _597  and  _600
REMARK  246  A    between atoms: _600  and  _601
REMARK  247  A    between atoms: _601  and  _602
REMARK  248  A    between atoms: _607  and  _609
REMARK  249  A    between atoms: _609  and  _610
REMARK  250  A    between atoms: _609  and  _612
REMARK  251  A    between atoms: _612  and  _613
REMARK  252  A    between atoms: _618  and  _619
REMARK  253  A    between atoms: _621  and  _623
REMARK  254  A    between atoms: _623  and  _624
REMARK  255  A    between atoms: _623  and  _626
REMARK  256  A    between atoms: _626  and  _627
REMARK  257  A    between atoms: _627  and  _628
REMARK  258  A    between atoms: _628  and  _629
REMARK  259  A    between atoms: _638  and  _640
REMARK  260  A    between atoms: _640  and  _641
REMARK  261  A    between atoms: _640  and  _643
REMARK  262  A    between atoms: _643  and  _644
REMARK  263  A    between atoms: _647  and  _649
REMARK  264  A    between atoms: _649  and  _650
REMARK  265  A    between atoms: _649  and  _652
REMARK  266  A    between atoms: _652  and  _653
REMARK  267  A    between atoms: _655  and  _657
REMARK  268  A    between atoms: _657  and  _658
REMARK  269  A    between atoms: _657  and  _660
REMARK  270  A    between atoms: _660  and  _661
REMARK  271  A    between atoms: _666  and  _668
REMARK  272  A    between atoms: _668  and  _669
REMARK  273  A    between atoms: _668  and  _671
REMARK  274  A    between atoms: _671  and  _672
REMARK  275  A    between atoms: _672  and  _673
REMARK  276  A    between atoms: _673  and  _674
REMARK  277  A    between atoms: _674  and  _675
REMARK  278  A    between atoms: _679  and  _681
REMARK  279  A    between atoms: _681  and  _682
REMARK  280  A    between atoms: _681  and  _684
REMARK  281  A    between atoms: _684  and  _685
REMARK  282  A    between atoms: _688  and  _690
REMARK  283  A    between atoms: _690  and  _691
REMARK  284  A    between atoms: _690  and  _693
REMARK  285  A    between atoms: _693  and  _694
REMARK  286  A    between atoms: _697  and  _699
REMARK  287  A    between atoms: _699  and  _700
REMARK  288  A    between atoms: _699  and  _702
REMARK  289  A    between atoms: _705  and  _707
REMARK  290  A    between atoms: _707  and  _708
REMARK  291  A    between atoms: _707  and  _710
REMARK  292  A    between atoms: _710  and  _711
REMARK                            x       y       z     vdW  Elec       q    Type
REMARK                         _______ _______ _______ _____ _____    ______ ____
ROOT
ATOM      1  CA  TRP A   2      58.342  11.428  -4.578  0.00  0.00    +0.153 C 
ENDROOT
BRANCH   1   4
ATOM      2  C   SER A   1      57.047  12.165  -6.497  0.00  0.00    +0.241 C 
ATOM      3  O   SER A   1      56.040  12.445  -5.818  0.00  0.00    -0.274 OA
ATOM      4  N   TRP A   2      58.153  11.597  -6.008  0.00  0.00    -0.297 N 
ATOM      5  H   TRP A   2      58.892  11.270  -6.663  0.00  0.00    +0.150 HD
BRANCH   2   6
ATOM      6  CA  SER A   1      57.054  12.451  -7.977  0.00  0.00    +0.174 C 
BRANCH   6   7
ATOM      7  N   SER A   1      55.692  12.664  -8.434  0.00  0.00    -0.236 NA
ATOM      8  H   SER A   1      55.018  13.206  -7.857  0.00  0.00    +0.142 HD
ENDBRANCH   6   7
BRANCH   6   9
ATOM      9  CB  SER A   1      57.970  13.647  -8.314  0.00  0.00    +0.163 C 
BRANCH   9  10
ATOM     10  OG  SER A   1      57.687  14.759  -7.487  0.00  0.00    -0.380 OA
ATOM     11  H   SER A   1      56.746  15.035  -7.618  0.00  0.00    +0.211 HD
ENDBRANCH   9  10
ENDBRANCH   6   9
ENDBRANCH   2   6
ENDBRANCH   1   4
BRANCH   1  12
ATOM     12  C   TRP A   2      59.186  12.607  -4.086  0.00  0.00    +0.241 C 
ATOM     13  N   ASP A   3      58.540  13.504  -3.363  0.00  0.00    -0.297 N 
ATOM     14  H   ASP A   3      57.557  13.314  -3.082  0.00  0.00    +0.150 HD
ATOM     15  O   TRP A   2      60.400  12.683  -4.328  0.00  0.00    -0.273 OA
BRANCH  13  16
ATOM     16  CA  ASP A   3      59.168  14.752  -2.949  0.00  0.00    +0.160 C 
BRANCH  16  17
ATOM     17  C   ASP A   3      59.650  14.644  -1.502  0.00  0.00    +0.241 C 
ATOM     18  O   ASP A   3      58.854  14.768  -0.584  0.00  0.00    -0.273 OA
ATOM     19  N   CYS A   4      60.954  14.411  -1.306  0.00  0.00    -0.297 N 
ATOM     20  H   CYS A   4      61.578  14.325  -2.133  0.00  0.00    +0.150 HD
BRANCH  19  21
ATOM     21  CA  CYS A   4      61.530  14.273   0.030  0.00  0.00    +0.149 C 
BRANCH  21  22
ATOM     22  C   CYS A   4      62.246  15.531   0.547  0.00  0.00    +0.228 C 
ATOM     23  O   CYS A   4      63.271  15.446   1.208  0.00  0.00    -0.286 OA
ENDBRANCH  21  22
BRANCH  21  24
ATOM     24  CB  CYS A   4      62.449  13.050   0.102  0.00  0.00    +0.096 C 
ATOM     25  SG  CYS A   4      61.510  11.513  -0.183  0.00  0.00    -0.080 S 
ENDBRANCH  21  24
ENDBRANCH  19  21
ENDBRANCH  16  17
BRANCH  16  26
ATOM     26  CB  ASP A   3      58.122  15.868  -3.120  0.00  0.00    +0.143 C 
BRANCH  26  27
ATOM     27  CG  ASP A   3      58.604  17.227  -2.656  0.00  0.00    +0.367 C 
ATOM     28  OD2 ASP A   3      59.773  17.373  -2.215  0.00  0.00    -0.246 OA
ATOM     29  OD1 ASP A   3      57.827  18.210  -2.685  0.00  0.00    -0.246 OA
ENDBRANCH  26  27
ENDBRANCH  16  26
ENDBRANCH  13  16
ENDBRANCH   1  12
BRANCH   1  30
ATOM     30  CB  TRP A   2      59.018  10.085  -4.250  0.00  0.00    +0.057 C 
BRANCH  30  31
ATOM     31  CG  TRP A   2      58.182   8.835  -4.530  0.00  0.00    -0.002 A 
ATOM     32  CD1 TRP A   2      57.404   8.140  -3.640  0.00  0.00    +0.068 A 
ATOM     33  NE1 TRP A   2      56.856   7.026  -4.239  0.00  0.00    -0.352 N 
ATOM     34  HE1 TRP A   2      56.223   6.339  -3.782  0.00  0.00    +0.166 HD
ATOM     35  CE2 TRP A   2      57.287   6.977  -5.542  0.00  0.00    +0.056 A 
ATOM     36  CZ2 TRP A   2      57.004   6.060  -6.538  0.00  0.00    +0.017 A 
ATOM     37  CH2 TRP A   2      57.581   6.249  -7.775  0.00  0.00    +0.001 A 
ATOM     38  CZ3 TRP A   2      58.441   7.344  -8.024  0.00  0.00    +0.000 A 
ATOM     39  CE3 TRP A   2      58.721   8.280  -7.024  0.00  0.00    +0.001 A 
ATOM     40  CD2 TRP A   2      58.120   8.113  -5.756  0.00  0.00    +0.013 A 
ENDBRANCH  30  31
ENDBRANCH   1  30
TORSDOF 15
REMARK  Name = ../refined-set-2016/1rjk/1rjk_pocket.pdb
REMARK  292 active torsions:
REMARK  status: ('A' for Active; 'I' for Inactive)
REMARK    1  A    between atoms: _1  and  _3
REMARK    2  A    between atoms: _3  and  _4
REMARK    3  A    between atoms: _3  and  _6
REMARK    4  A    between atoms: _6  and  _7
REMARK    5  A    between atoms: _10  and  _12
REMARK    6  A    between atoms: _12  and  _13
REMARK    7  A    between atoms: _12  and  _15
REMARK    8  A    between atoms: _15  and  _16
REMARK    9  A    between atoms: _21  and  _22
REMARK   10  A    between atoms: _24  and  _26
REMARK   11  A    between atoms: _26  and  _27
REMARK   12  A    between atoms: _26  and  _29
REMARK   13  A    between atoms: _29  and  _30
REMARK   14  A    between atoms: _34  and  _35
REMARK   15  A    between atoms: _40  and  _42
REMARK   16  A    between atoms: _42  and  _43
REMARK   17  A    between atoms: _42  and  _45
REMARK   18  A    between atoms: _45  and  _46
REMARK   19  A    between atoms: _51  and  _52
REMARK   20  A    between atoms: _54  and  _56
REMARK   21  A    between atoms: _56  and  _57
REMARK   22  A    between atoms: _56  and  _59
REMARK   23  A    between atoms: _59  and  _60
REMARK   24  A    between atoms: _66  and  _68
REMARK   25  A    between atoms: _68  and  _69
REMARK   26  A    between atoms: _68  and  _71
REMARK   27  A    between atoms: _71  and  _72
REMARK   28  A    between atoms: _78  and  _80
REMARK   29  A    between atoms: _80  and  _81
REMARK   30  A    between atoms: _80  and  _83
REMARK   31  A    between atoms: _83  and  _84
REMARK   32  A    between atoms: _84  and  _85
REMARK   33  A    between atoms: _85  and  _86
REMARK   34  A    between atoms: _95  and  _97
REMARK   35  A    between atoms: _97  and  _98
REMARK   36  A    between atoms: _97  and  _100
REMARK   37  A    between atoms: _100  and  _101
REMARK   38  A    between atoms: _104  and  _106
REMARK   39  A    between atoms: _106  and  _107
REMARK   40  A    between atoms: _106  and  _109
REMARK   41  A    between atoms: _109  and  _110
REMARK   42  A    between atoms: _110  and  _111
REMARK   43  A    between atoms: _113  and  _115
REMARK   44  A    between atoms: _115  and  _116
REMARK   45  A    between atoms: _115  and  _118
REMARK   46  A    between atoms: _118  and  _119
REMARK   47  A    between atoms: _123  and  _124
REMARK   48  A    between atoms: _129  and  _131
REMARK   49  A    between atoms: _131  and  _132
REMARK   50  A    between atoms: _131  and  _134
REMARK   51  A    between atoms: _134  and  _135
REMARK   52  A    between atoms: _140  and  _142
REMARK   53  A    between atoms: _142  and  _143
REMARK   54  A    between atoms: _142  and  _145
REMARK   55  A    between atoms: _145  and  _146
REMARK   56  A    between atoms: _149  and  _151
REMARK   57  A    between atoms: _151  and  _152
REMARK   58  A    between atoms: _155  and  _157
REMARK   59  A    between atoms: _157  and  _158
REMARK   60  A    between atoms: _157  and  _160
REMARK   61  A    between atoms: _160  and  _161
REMARK   62  A    between atoms: _164  and  _166
REMARK   63  A    between atoms: _166  and  _167
REMARK   64  A    between atoms: _166  and  _169
REMARK   65  A    between atoms: _169  and  _170
REMARK   66  A    between atoms: _173  and  _175
REMARK   67  A    between atoms: _175  and  _176
REMARK   68  A    between atoms: _175  and  _178
REMARK   69  A    between atoms: _181  and  _183
REMARK   70  A    between atoms: _183  and  _184
REMARK   71  A    between atoms: _183  and  _186
REMARK   72  A    between atoms: _186  and  _187
REMARK   73  A    between atoms: _189  and  _191
REMARK   74  A    between atoms: _191  and  _192
REMARK   75  A    between atoms: _191  and  _194
REMARK   76  A    between atoms: _194  and  _195
REMARK   77  A    between atoms: _200  and  _201
REMARK   78  A    between atoms: _203  and  _205
REMARK   79  A    between atoms: _205  and  _206
REMARK   80  A    between atoms: _205  and  _208
REMARK   81  A    between atoms: _208  and  _209
REMARK   82  A    between atoms: _211  and  _213
REMARK   83  A    between atoms: _213  and  _214
REMARK   84  A    between atoms: _213  and  _216
REMARK   85  A    between atoms: _216  and  _217
REMARK   86  A    between atoms: _220  and  _222
REMARK   87  A    between atoms: _222  and  _223
REMARK   88  A    between atoms: _222  and  _225
REMARK   89  A    between atoms: _225  and  _226
REMARK   90  A    between atoms: _226  and  _227
REMARK   91  A    between atoms: _227  and  _228
REMARK   92  A    between atoms: _228  and  _229
REMARK   93  A    between atoms: _233  and  _235
REMARK   94  A    between atoms: _235  and  _236
REMARK   95  A    between atoms: _235  and  _238
REMARK   96  A    between atoms: _241  and  _243
REMARK   97  A    between atoms: _243  and  _244
REMARK   98  A    between atoms: _247  and  _249
REMARK   99  A    between atoms: _249  and  _250
REMARK  100  A    between atoms: _249  and  _252
REMARK  101  A    between atoms: _252  and  _253
REMARK  102  A    between atoms: _256  and  _258
REMARK  103  A    between atoms: _258  and  _259
REMARK  104  A    between atoms: _258  and  _261
REMARK  105  A    between atoms: _261  and  _262
REMARK  106  A    between atoms: _262  and  _263
REMARK  107  A    between atoms: _266  and  _268
REMARK  108  A    between atoms: _268  and  _269
REMARK  109  A    between atoms: _268  and  _271
REMARK  110  A    between atoms: _274  and  _276
REMARK  111  A    between atoms: _276  and  _277
REMARK  112  A    between atoms: _276  and  _279
REMARK  113  A    between atoms: _279  and  _280
REMARK  114  A    between atoms: _283  and  _285
REMARK  115  A    between atoms: _285  and  _286
REMARK  116  A    between atoms: _285  and  _288
REMARK  117  A    between atoms: _288  and  _289
REMARK  118  A    between atoms: _289  and  _290
REMARK  119  A    between atoms: _292  and  _294
REMARK  120  A    between atoms: _294  and  _295
REMARK  121  A    between atoms: _294  and  _297
REMARK  122  A    between atoms: _297  and  _298
REMARK  123  A    between atoms: _301  and  _303
REMARK  124  A    between atoms: _303  and  _304
REMARK  125  A    between atoms: _303  and  _306
REMARK  126  A    between atoms: _306  and  _307
REMARK  127  A    between atoms: _307  and  _308
REMARK  128  A    between atoms: _308  and  _309
REMARK  129  A    between atoms: _318  and  _320
REMARK  130  A    between atoms: _320  and  _321
REMARK  131  A    between atoms: _320  and  _323
REMARK  132  A    between atoms: _323  and  _324
REMARK  133  A    between atoms: _326  and  _328
REMARK  134  A    between atoms: _328  and  _329
REMARK  135  A    between atoms: _328  and  _331
REMARK  136  A    between atoms: _331  and  _332
REMARK  137  A    between atoms: _337  and  _339
REMARK  138  A    between atoms: _339  and  _340
REMARK  139  A    between atoms: _339  and  _342
REMARK  140  A    between atoms: _342  and  _343
REMARK  141  A    between atoms: _343  and  _344
REMARK  142  A    between atoms: _349  and  _351
REMARK  143  A    between atoms: _351  and  _352
REMARK  144  A    between atoms: _351  and  _354
REMARK  145  A    between atoms: _354  and  _355
REMARK  146  A    between atoms: _357  and  _359
REMARK  147  A    between atoms: _359  and  _360
REMARK  148  A    between atoms: _359  and  _362
REMARK  149  A    between atoms: _362  and  _363
REMARK  150  A    between atoms: _369  and  _371
REMARK  151  A    between atoms: _371  and  _372
REMARK  152  A    between atoms: _371  and  _374
REMARK  153  A    between atoms: _374  and  _375
REMARK  154  A    between atoms: _377  and  _379
REMARK  155  A    between atoms: _379  and  _380
REMARK  156  A    between atoms: _379  and  _382
REMARK  157  A    between atoms: _382  and  _383
REMARK  158  A    between atoms: _393  and  _395
REMARK  159  A    between atoms: _395  and  _396
REMARK  160  A    between atoms: _395  and  _398
REMARK  161  A    between atoms: _398  and  _399
REMARK  162  A    between atoms: _402  and  _404
REMARK  163  A    between atoms: _404  and  _405
REMARK  164  A    between atoms: _404  and  _407
REMARK  165  A    between atoms: _409  and  _411
REMARK  166  A    between atoms: _411  and  _412
REMARK  167  A    between atoms: _411  and  _414
REMARK  168  A    between atoms: _414  and  _415
REMARK  169  A    between atoms: _420  and  _421
REMARK  170  A    between atoms: _423  and  _425
REMARK  171  A    between atoms: _425  and  _426
REMARK  172  A    between atoms: _425  and  _428
REMARK  173  A    between atoms: _428  and  _429
REMARK  174  A    between atoms: _429  and  _430
REMARK  175  A    between atoms: _430  and  _431
REMARK  176  A    between atoms: _431  and  _432
REMARK  177  A    between atoms: _436  and  _438
REMARK  178  A    between atoms: _438  and  _439
REMARK  179  A    between atoms: _438  and  _441
REMARK  180  A    between atoms: _441  and  _442
REMARK  181  A    between atoms: _447  and  _448
REMARK  182  A    between atoms: _450  and  _452
REMARK  183  A    between atoms: _452  and  _453
REMARK  184  A    between atoms: _452  and  _455
REMARK  185  A    between atoms: _455  and  _456
REMARK  186  A    between atoms: _459  and  _461
REMARK  187  A    between atoms: _461  and  _462
REMARK  188  A    between atoms: _461  and  _464
REMARK  189  A    between atoms: _464  and  _465
REMARK  190  A    between atoms: _468  and  _470
REMARK  191  A    between atoms: _470  and  _471
REMARK  192  A    between atoms: _470  and  _473
REMARK  193  A    between atoms: _476  and  _478
REMARK  194  A    between atoms: _478  and  _479
REMARK  195  A    between atoms: _478  and  _481
REMARK  196  A    between atoms: _481  and  _482
REMARK  197  A    between atoms: _484  and  _486
REMARK  198  A    between atoms: _486  and  _487
REMARK  199  A    between atoms: _490  and  _492
REMARK  200  A    between atoms: _492  and  _493
REMARK  201  A    between atoms: _495  and  _497
REMARK  202  A    between atoms: _497  and  _498
REMARK  203  A    between atoms: _497  and  _500
REMARK  204  A    between atoms: _500  and  _501
REMARK  205  A    between atoms: _506  and  _508
REMARK  206  A    between atoms: _508  and  _509
REMARK  207  A    between atoms: _508  and  _511
REMARK  208  A    between atoms: _511  and  _512
REMARK  209  A    between atoms: _515  and  _517
REMARK  210  A    between atoms: _517  and  _518
REMARK  211  A    between atoms: _517  and  _520
REMARK  212  A    between atoms: _520  and  _521
REMARK  213  A    between atoms: _524  and  _526
REMARK  214  A    between atoms: _526  and  _527
REMARK  215  A    between atoms: _526  and  _529
REMARK  216  A    between atoms: _529  and  _530
REMARK  217  A    between atoms: _533  and  _535
REMARK  218  A    between atoms: _535  and  _536
REMARK  219  A    between atoms: _535  and  _538
REMARK  220  A    between atoms: _538  and  _539
REMARK  221  A    between atoms: _545  and  _547
REMARK  222  A    between atoms: _547  and  _548
REMARK  223  A    between atoms: _547  and  _550
REMARK  224  A    between atoms: _550  and  _551
REMARK  225  A    between atoms: _551  and  _552
REMARK  226  A    between atoms: _557  and  _559
REMARK  227  A    between atoms: _559  and  _560
REMARK  228  A    between atoms: _559  and  _562
REMARK  229  A    between atoms: _562  and  _563
REMARK  230  A    between atoms: _566  and  _568
REMARK  231  A    between atoms: _568  and  _569
REMARK  232  A    between atoms: _568  and  _571
REMARK  233  A    between atoms: _571  and  _572
REMARK  234  A    between atoms: _572  and  _573
REMARK  235  A    between atoms: _576  and  _578
REMARK  236  A    between atoms: _578  and  _579
REMARK  237  A    between atoms: _578  and  _581
REMARK  238  A    between atoms: _581  and  _582
REMARK  239  A    between atoms: _587  and  _589
REMARK  240  A    between atoms: _589  and  _590
REMARK  241  A    between atoms: _589  and  _592
REMARK  242  A    between atoms: _592  and  _593
REMARK  243  A    between atoms: _595  and  _597
REMARK  244  A    between atoms: _597  and  _598
REMARK  245  A    between atoms: _597  and  _600
REMARK  246  A    between atoms: _600  and  _601
REMARK  247  A    between atoms: _601  and  _602
REMARK  248  A    between atoms: _607  and  _609
REMARK  249  A    between atoms: _609  and  _610
REMARK  250  A    between atoms: _609  and  _612
REMARK  251  A    between atoms: _612  and  _613
REMARK  252  A    between atoms: _618  and  _619
REMARK  253  A    between atoms: _621  and  _623
REMARK  254  A    between atoms: _623  and  _624
REMARK  255  A    between atoms: _623  and  _626
REMARK  256  A    between atoms: _626  and  _627
REMARK  257  A    between atoms: _627  and  _628
REMARK  258  A    between atoms: _628  and  _629
REMARK  259  A    between atoms: _638  and  _640
REMARK  260  A    between atoms: _640  and  _641
REMARK  261  A    between atoms: _640  and  _643
REMARK  262  A    between atoms: _643  and  _644
REMARK  263  A    between atoms: _647  and  _649
REMARK  264  A    between atoms: _649  and  _650
REMARK  265  A    between atoms: _649  and  _652
REMARK  266  A    between atoms: _652  and  _653
REMARK  267  A    between atoms: _655  and  _657
REMARK  268  A    between atoms: _657  and  _658
REMARK  269  A    between atoms: _657  and  _660
REMARK  270  A    between atoms: _660  and  _661
REMARK  271  A    between atoms: _666  and  _668
REMARK  272  A    between atoms: _668  and  _669
REMARK  273  A    between atoms: _668  and  _671
REMARK  274  A    between atoms: _671  and  _672
REMARK  275  A    between atoms: _672  and  _673
REMARK  276  A    between atoms: _673  and  _674
REMARK  277  A    between atoms: _674  and  _675
REMARK  278  A    between atoms: _679  and  _681
REMARK  279  A    between atoms: _681  and  _682
REMARK  280  A    between atoms: _681  and  _684
REMARK  281  A    between atoms: _684  and  _685
REMARK  282  A    between atoms: _688  and  _690
REMARK  283  A    between atoms: _690  and  _691
REMARK  284  A    between atoms: _690  and  _693
REMARK  285  A    between atoms: _693  and  _694
REMARK  286  A    between atoms: _697  and  _699
REMARK  287  A    between atoms: _699  and  _700
REMARK  288  A    between atoms: _699  and  _702
REMARK  289  A    between atoms: _705  and  _707
REMARK  290  A    between atoms: _707  and  _708
REMARK  291  A    between atoms: _707  and  _710
REMARK  292  A    between atoms: _710  and  _711
REMARK                            x       y       z     vdW  Elec       q    Type
REMARK                         _______ _______ _______ _____ _____    ______ ____
ROOT
ATOM      1  CA  LYS A   2      62.826  14.619  -5.364  0.00  0.00    +0.149 C 
ENDROOT
BRANCH   1   2
ATOM      2  C   LYS A   2      62.964  13.656  -6.538  0.00  0.00    +0.241 C 
ATOM      3  N   TYR A   3      62.217  12.551  -6.494  0.00  0.00    -0.297 N 
ATOM      4  H   TYR A   3      61.460  12.473  -5.786  0.00  0.00    +0.150 HD
ATOM      5  O   LYS A   2      63.749  13.907  -7.466  0.00  0.00    -0.273 OA
BRANCH   3   6
ATOM      6  CA  TYR A   3      62.447  11.448  -7.427  0.00  0.00    +0.153 C 
BRANCH   6   7
ATOM      7  C   TYR A   3      61.286  11.255  -8.371  0.00  0.00    +0.241 C 
ATOM      8  O   TYR A   3      60.142  11.067  -7.948  0.00  0.00    -0.273 OA
ATOM      9  N   ASP A   4      61.591  11.292  -9.662  0.00  0.00    -0.298 N 
ATOM     10  H   ASP A   4      62.579  11.429  -9.955  0.00  0.00    +0.150 HD
BRANCH   9  11
ATOM     11  CA  ASP A   4      60.548  11.141 -10.675  0.00  0.00    +0.148 C 
BRANCH  11  12
ATOM     12  C   ASP A   4      60.792   9.890 -11.467  0.00  0.00    +0.227 C 
ATOM     13  O   ASP A   4      61.717   9.134 -11.201  0.00  0.00    -0.286 OA
ENDBRANCH  11  12
BRANCH  11  14
ATOM     14  CB  ASP A   4      60.475  12.381 -11.606  0.00  0.00    +0.142 C 
BRANCH  14  15
ATOM     15  CG  ASP A   4      61.774  12.646 -12.340  0.00  0.00    +0.367 C 
ATOM     16  OD2 ASP A   4      62.734  11.845 -12.407  0.00  0.00    -0.246 OA
ATOM     17  OD1 ASP A   4      61.894  13.743 -12.931  0.00  0.00    -0.246 OA
ENDBRANCH  14  15
ENDBRANCH  11  14
ENDBRANCH   9  11
ENDBRANCH   6   7
BRANCH   6  18
ATOM     18  CB  TYR A   3      62.751  10.133  -6.686  0.00  0.00    +0.055 C 
BRANCH  18  19
ATOM     19  CG  TYR A   3      63.670  10.314  -5.508  0.00  0.00    -0.020 A 
ATOM     20  CD2 TYR A   3      63.173  10.304  -4.201  0.00  0.00    -0.001 A 
ATOM     21  CE2 TYR A   3      64.039  10.486  -3.108  0.00  0.00    +0.036 A 
ATOM     22  CZ  TYR A   3      65.383  10.668  -3.339  0.00  0.00    +0.134 A 
ATOM     23  CE1 TYR A   3      65.895  10.683  -4.620  0.00  0.00    +0.036 A 
ATOM     24  CD1 TYR A   3      65.039  10.509  -5.696  0.00  0.00    -0.001 A 
BRANCH  22  25
ATOM     25  OH  TYR A   3      66.234  10.854  -2.287  0.00  0.00    -0.506 OA
ATOM     26  HH  TYR A   3      66.921  10.142  -2.290  0.00  0.00    +0.292 HD
ENDBRANCH  22  25
ENDBRANCH  18  19
ENDBRANCH   6  18
ENDBRANCH   3   6
ENDBRANCH   1   2
BRANCH   1  29
ATOM     27  C   TYR A   1      64.275  14.385  -3.414  0.00  0.00    +0.239 C 
ATOM     28  O   TYR A   1      63.348  14.166  -2.646  0.00  0.00    -0.274 OA
ATOM     29  N   LYS A   2      64.114  14.673  -4.704  0.00  0.00    -0.297 N 
ATOM     30  H   LYS A   2      64.948  14.948  -5.261  0.00  0.00    +0.150 HD
BRANCH  27  31
ATOM     31  CA  TYR A   1      65.709  14.359  -2.933  0.00  0.00    +0.149 C 
BRANCH  31  32
ATOM     32  N   TYR A   1      66.435  15.514  -3.453  0.00  0.00    -0.238 NA
ATOM     33  H   TYR A   1      66.214  16.454  -3.068  0.00  0.00    +0.142 HD
ENDBRANCH  31  32
BRANCH  31  34
ATOM     34  CB  TYR A   1      65.794  14.290  -1.402  0.00  0.00    +0.053 C 
BRANCH  34  35
ATOM     35  CG  TYR A   1      67.212  14.385  -0.870  0.00  0.00    -0.020 A 
ATOM     36  CD2 TYR A   1      67.497  15.100   0.300  0.00  0.00    -0.001 A 
ATOM     37  CE2 TYR A   1      68.809  15.202   0.782  0.00  0.00    +0.036 A 
ATOM     38  CZ  TYR A   1      69.852  14.591   0.076  0.00  0.00    +0.134 A 
ATOM     39  CE1 TYR A   1      69.587  13.894  -1.091  0.00  0.00    +0.036 A 
ATOM     40  CD1 TYR A   1      68.274  13.794  -1.554  0.00  0.00    -0.001 A 
BRANCH  38  41
ATOM     41  OH  TYR A   1      71.155  14.678   0.520  0.00  0.00    -0.506 OA
ATOM     42  HH  TYR A   1      71.507  13.768   0.688  0.00  0.00    +0.292 HD
ENDBRANCH  38  41
ENDBRANCH  34  35
ENDBRANCH  31  34
ENDBRANCH  27  31
ENDBRANCH   1  29
BRANCH   1  43
ATOM     43  CB  LYS A   2      62.402  16.015  -5.829  0.00  0.00    +0.029 C 
BRANCH  43  44
ATOM     44  CG  LYS A   2      60.956  16.111  -6.269  0.00  0.00    +0.000 C 
BRANCH  44  45
ATOM     45  CD  LYS A   2      60.474  17.547  -6.164  0.00  0.00    -0.024 C 
BRANCH  45  46
ATOM     46  CE  LYS A   2      59.037  17.663  -6.643  0.00  0.00    -0.086 C 
BRANCH  46  47
ATOM     47  NZ  LYS A   2      58.873  18.735  -7.676  0.00  0.00    +0.380 N 
ATOM     48  HZ1 LYS A   2      59.155  19.651  -7.272  0.00  0.00    -0.089 HD
ATOM     49  HZ2 LYS A   2      57.877  18.778  -7.974  0.00  0.00    -0.089 HD
ATOM     50  HZ3 LYS A   2      59.473  18.518  -8.497  0.00  0.00    -0.089 HD
ENDBRANCH  46  47
ENDBRANCH  45  46
ENDBRANCH  44  45
ENDBRANCH  43  44
ENDBRANCH   1  43
TORSDOF 21
REMARK  Name = ../refined-set-2016/1rjk/1rjk_pocket.pdb
REMARK  292 active torsions:
REMARK  status: ('A' for Active; 'I' for Inactive)
REMARK    1  A    between atoms: _1  and  _3
REMARK    2  A    between atoms: _3  and  _4
REMARK    3  A    between atoms: _3  and  _6
REMARK    4  A    between atoms: _6  and  _7
REMARK    5  A    between atoms: _10  and  _12
REMARK    6  A    between atoms: _12  and  _13
REMARK    7  A    between atoms: _12  and  _15
REMARK    8  A    between atoms: _15  and  _16
REMARK    9  A    between atoms: _21  and  _22
REMARK   10  A    between atoms: _24  and  _26
REMARK   11  A    between atoms: _26  and  _27
REMARK   12  A    between atoms: _26  and  _29
REMARK   13  A    between atoms: _29  and  _30
REMARK   14  A    between atoms: _34  and  _35
REMARK   15  A    between atoms: _40  and  _42
REMARK   16  A    between atoms: _42  and  _43
REMARK   17  A    between atoms: _42  and  _45
REMARK   18  A    between atoms: _45  and  _46
REMARK   19  A    between atoms: _51  and  _52
REMARK   20  A    between atoms: _54  and  _56
REMARK   21  A    between atoms: _56  and  _57
REMARK   22  A    between atoms: _56  and  _59
REMARK   23  A    between atoms: _59  and  _60
REMARK   24  A    between atoms: _66  and  _68
REMARK   25  A    between atoms: _68  and  _69
REMARK   26  A    between atoms: _68  and  _71
REMARK   27  A    between atoms: _71  and  _72
REMARK   28  A    between atoms: _78  and  _80
REMARK   29  A    between atoms: _80  and  _81
REMARK   30  A    between atoms: _80  and  _83
REMARK   31  A    between atoms: _83  and  _84
REMARK   32  A    between atoms: _84  and  _85
REMARK   33  A    between atoms: _85  and  _86
REMARK   34  A    between atoms: _95  and  _97
REMARK   35  A    between atoms: _97  and  _98
REMARK   36  A    between atoms: _97  and  _100
REMARK   37  A    between atoms: _100  and  _101
REMARK   38  A    between atoms: _104  and  _106
REMARK   39  A    between atoms: _106  and  _107
REMARK   40  A    between atoms: _106  and  _109
REMARK   41  A    between atoms: _109  and  _110
REMARK   42  A    between atoms: _110  and  _111
REMARK   43  A    between atoms: _113  and  _115
REMARK   44  A    between atoms: _115  and  _116
REMARK   45  A    between atoms: _115  and  _118
REMARK   46  A    between atoms: _118  and  _119
REMARK   47  A    between atoms: _123  and  _124
REMARK   48  A    between atoms: _129  and  _131
REMARK   49  A    between atoms: _131  and  _132
REMARK   50  A    between atoms: _131  and  _134
REMARK   51  A    between atoms: _134  and  _135
REMARK   52  A    between atoms: _140  and  _142
REMARK   53  A    between atoms: _142  and  _143
REMARK   54  A    between atoms: _142  and  _145
REMARK   55  A    between atoms: _145  and  _146
REMARK   56  A    between atoms: _149  and  _151
REMARK   57  A    between atoms: _151  and  _152
REMARK   58  A    between atoms: _155  and  _157
REMARK   59  A    between atoms: _157  and  _158
REMARK   60  A    between atoms: _157  and  _160
REMARK   61  A    between atoms: _160  and  _161
REMARK   62  A    between atoms: _164  and  _166
REMARK   63  A    between atoms: _166  and  _167
REMARK   64  A    between atoms: _166  and  _169
REMARK   65  A    between atoms: _169  and  _170
REMARK   66  A    between atoms: _173  and  _175
REMARK   67  A    between atoms: _175  and  _176
REMARK   68  A    between atoms: _175  and  _178
REMARK   69  A    between atoms: _181  and  _183
REMARK   70  A    between atoms: _183  and  _184
REMARK   71  A    between atoms: _183  and  _186
REMARK   72  A    between atoms: _186  and  _187
REMARK   73  A    between atoms: _189  and  _191
REMARK   74  A    between atoms: _191  and  _192
REMARK   75  A    between atoms: _191  and  _194
REMARK   76  A    between atoms: _194  and  _195
REMARK   77  A    between atoms: _200  and  _201
REMARK   78  A    between atoms: _203  and  _205
REMARK   79  A    between atoms: _205  and  _206
REMARK   80  A    between atoms: _205  and  _208
REMARK   81  A    between atoms: _208  and  _209
REMARK   82  A    between atoms: _211  and  _213
REMARK   83  A    between atoms: _213  and  _214
REMARK   84  A    between atoms: _213  and  _216
REMARK   85  A    between atoms: _216  and  _217
REMARK   86  A    between atoms: _220  and  _222
REMARK   87  A    between atoms: _222  and  _223
REMARK   88  A    between atoms: _222  and  _225
REMARK   89  A    between atoms: _225  and  _226
REMARK   90  A    between atoms: _226  and  _227
REMARK   91  A    between atoms: _227  and  _228
REMARK   92  A    between atoms: _228  and  _229
REMARK   93  A    between atoms: _233  and  _235
REMARK   94  A    between atoms: _235  and  _236
REMARK   95  A    between atoms: _235  and  _238
REMARK   96  A    between atoms: _241  and  _243
REMARK   97  A    between atoms: _243  and  _244
REMARK   98  A    between atoms: _247  and  _249
REMARK   99  A    between atoms: _249  and  _250
REMARK  100  A    between atoms: _249  and  _252
REMARK  101  A    between atoms: _252  and  _253
REMARK  102  A    between atoms: _256  and  _258
REMARK  103  A    between atoms: _258  and  _259
REMARK  104  A    between atoms: _258  and  _261
REMARK  105  A    between atoms: _261  and  _262
REMARK  106  A    between atoms: _262  and  _263
REMARK  107  A    between atoms: _266  and  _268
REMARK  108  A    between atoms: _268  and  _269
REMARK  109  A    between atoms: _268  and  _271
REMARK  110  A    between atoms: _274  and  _276
REMARK  111  A    between atoms: _276  and  _277
REMARK  112  A    between atoms: _276  and  _279
REMARK  113  A    between atoms: _279  and  _280
REMARK  114  A    between atoms: _283  and  _285
REMARK  115  A    between atoms: _285  and  _286
REMARK  116  A    between atoms: _285  and  _288
REMARK  117  A    between atoms: _288  and  _289
REMARK  118  A    between atoms: _289  and  _290
REMARK  119  A    between atoms: _292  and  _294
REMARK  120  A    between atoms: _294  and  _295
REMARK  121  A    between atoms: _294  and  _297
REMARK  122  A    between atoms: _297  and  _298
REMARK  123  A    between atoms: _301  and  _303
REMARK  124  A    between atoms: _303  and  _304
REMARK  125  A    between atoms: _303  and  _306
REMARK  126  A    between atoms: _306  and  _307
REMARK  127  A    between atoms: _307  and  _308
REMARK  128  A    between atoms: _308  and  _309
REMARK  129  A    between atoms: _318  and  _320
REMARK  130  A    between atoms: _320  and  _321
REMARK  131  A    between atoms: _320  and  _323
REMARK  132  A    between atoms: _323  and  _324
REMARK  133  A    between atoms: _326  and  _328
REMARK  134  A    between atoms: _328  and  _329
REMARK  135  A    between atoms: _328  and  _331
REMARK  136  A    between atoms: _331  and  _332
REMARK  137  A    between atoms: _337  and  _339
REMARK  138  A    between atoms: _339  and  _340
REMARK  139  A    between atoms: _339  and  _342
REMARK  140  A    between atoms: _342  and  _343
REMARK  141  A    between atoms: _343  and  _344
REMARK  142  A    between atoms: _349  and  _351
REMARK  143  A    between atoms: _351  and  _352
REMARK  144  A    between atoms: _351  and  _354
REMARK  145  A    between atoms: _354  and  _355
REMARK  146  A    between atoms: _357  and  _359
REMARK  147  A    between atoms: _359  and  _360
REMARK  148  A    between atoms: _359  and  _362
REMARK  149  A    between atoms: _362  and  _363
REMARK  150  A    between atoms: _369  and  _371
REMARK  151  A    between atoms: _371  and  _372
REMARK  152  A    between atoms: _371  and  _374
REMARK  153  A    between atoms: _374  and  _375
REMARK  154  A    between atoms: _377  and  _379
REMARK  155  A    between atoms: _379  and  _380
REMARK  156  A    between atoms: _379  and  _382
REMARK  157  A    between atoms: _382  and  _383
REMARK  158  A    between atoms: _393  and  _395
REMARK  159  A    between atoms: _395  and  _396
REMARK  160  A    between atoms: _395  and  _398
REMARK  161  A    between atoms: _398  and  _399
REMARK  162  A    between atoms: _402  and  _404
REMARK  163  A    between atoms: _404  and  _405
REMARK  164  A    between atoms: _404  and  _407
REMARK  165  A    between atoms: _409  and  _411
REMARK  166  A    between atoms: _411  and  _412
REMARK  167  A    between atoms: _411  and  _414
REMARK  168  A    between atoms: _414  and  _415
REMARK  169  A    between atoms: _420  and  _421
REMARK  170  A    between atoms: _423  and  _425
REMARK  171  A    between atoms: _425  and  _426
REMARK  172  A    between atoms: _425  and  _428
REMARK  173  A    between atoms: _428  and  _429
REMARK  174  A    between atoms: _429  and  _430
REMARK  175  A    between atoms: _430  and  _431
REMARK  176  A    between atoms: _431  and  _432
REMARK  177  A    between atoms: _436  and  _438
REMARK  178  A    between atoms: _438  and  _439
REMARK  179  A    between atoms: _438  and  _441
REMARK  180  A    between atoms: _441  and  _442
REMARK  181  A    between atoms: _447  and  _448
REMARK  182  A    between atoms: _450  and  _452
REMARK  183  A    between atoms: _452  and  _453
REMARK  184  A    between atoms: _452  and  _455
REMARK  185  A    between atoms: _455  and  _456
REMARK  186  A    between atoms: _459  and  _461
REMARK  187  A    between atoms: _461  and  _462
REMARK  188  A    between atoms: _461  and  _464
REMARK  189  A    between atoms: _464  and  _465
REMARK  190  A    between atoms: _468  and  _470
REMARK  191  A    between atoms: _470  and  _471
REMARK  192  A    between atoms: _470  and  _473
REMARK  193  A    between atoms: _476  and  _478
REMARK  194  A    between atoms: _478  and  _479
REMARK  195  A    between atoms: _478  and  _481
REMARK  196  A    between atoms: _481  and  _482
REMARK  197  A    between atoms: _484  and  _486
REMARK  198  A    between atoms: _486  and  _487
REMARK  199  A    between atoms: _490  and  _492
REMARK  200  A    between atoms: _492  and  _493
REMARK  201  A    between atoms: _495  and  _497
REMARK  202  A    between atoms: _497  and  _498
REMARK  203  A    between atoms: _497  and  _500
REMARK  204  A    between atoms: _500  and  _501
REMARK  205  A    between atoms: _506  and  _508
REMARK  206  A    between atoms: _508  and  _509
REMARK  207  A    between atoms: _508  and  _511
REMARK  208  A    between atoms: _511  and  _512
REMARK  209  A    between atoms: _515  and  _517
REMARK  210  A    between atoms: _517  and  _518
REMARK  211  A    between atoms: _517  and  _520
REMARK  212  A    between atoms: _520  and  _521
REMARK  213  A    between atoms: _524  and  _526
REMARK  214  A    between atoms: _526  and  _527
REMARK  215  A    between atoms: _526  and  _529
REMARK  216  A    between atoms: _529  and  _530
REMARK  217  A    between atoms: _533  and  _535
REMARK  218  A    between atoms: _535  and  _536
REMARK  219  A    between atoms: _535  and  _538
REMARK  220  A    between atoms: _538  and  _539
REMARK  221  A    between atoms: _545  and  _547
REMARK  222  A    between atoms: _547  and  _548
REMARK  223  A    between atoms: _547  and  _550
REMARK  224  A    between atoms: _550  and  _551
REMARK  225  A    between atoms: _551  and  _552
REMARK  226  A    between atoms: _557  and  _559
REMARK  227  A    between atoms: _559  and  _560
REMARK  228  A    between atoms: _559  and  _562
REMARK  229  A    between atoms: _562  and  _563
REMARK  230  A    between atoms: _566  and  _568
REMARK  231  A    between atoms: _568  and  _569
REMARK  232  A    between atoms: _568  and  _571
REMARK  233  A    between atoms: _571  and  _572
REMARK  234  A    between atoms: _572  and  _573
REMARK  235  A    between atoms: _576  and  _578
REMARK  236  A    between atoms: _578  and  _579
REMARK  237  A    between atoms: _578  and  _581
REMARK  238  A    between atoms: _581  and  _582
REMARK  239  A    between atoms: _587  and  _589
REMARK  240  A    between atoms: _589  and  _590
REMARK  241  A    between atoms: _589  and  _592
REMARK  242  A    between atoms: _592  and  _593
REMARK  243  A    between atoms: _595  and  _597
REMARK  244  A    between atoms: _597  and  _598
REMARK  245  A    between atoms: _597  and  _600
REMARK  246  A    between atoms: _600  and  _601
REMARK  247  A    between atoms: _601  and  _602
REMARK  248  A    between atoms: _607  and  _609
REMARK  249  A    between atoms: _609  and  _610
REMARK  250  A    between atoms: _609  and  _612
REMARK  251  A    between atoms: _612  and  _613
REMARK  252  A    between atoms: _618  and  _619
REMARK  253  A    between atoms: _621  and  _623
REMARK  254  A    between atoms: _623  and  _624
REMARK  255  A    between atoms: _623  and  _626
REMARK  256  A    between atoms: _626  and  _627
REMARK  257  A    between atoms: _627  and  _628
REMARK  258  A    between atoms: _628  and  _629
REMARK  259  A    between atoms: _638  and  _640
REMARK  260  A    between atoms: _640  and  _641
REMARK  261  A    between atoms: _640  and  _643
REMARK  262  A    between atoms: _643  and  _644
REMARK  263  A    between atoms: _647  and  _649
REMARK  264  A    between atoms: _649  and  _650
REMARK  265  A    between atoms: _649  and  _652
REMARK  266  A    between atoms: _652  and  _653
REMARK  267  A    between atoms: _655  and  _657
REMARK  268  A    between atoms: _657  and  _658
REMARK  269  A    between atoms: _657  and  _660
REMARK  270  A    between atoms: _660  and  _661
REMARK  271  A    between atoms: _666  and  _668
REMARK  272  A    between atoms: _668  and  _669
REMARK  273  A    between atoms: _668  and  _671
REMARK  274  A    between atoms: _671  and  _672
REMARK  275  A    between atoms: _672  and  _673
REMARK  276  A    between atoms: _673  and  _674
REMARK  277  A    between atoms: _674  and  _675
REMARK  278  A    between atoms: _679  and  _681
REMARK  279  A    between atoms: _681  and  _682
REMARK  280  A    between atoms: _681  and  _684
REMARK  281  A    between atoms: _684  and  _685
REMARK  282  A    between atoms: _688  and  _690
REMARK  283  A    between atoms: _690  and  _691
REMARK  284  A    between atoms: _690  and  _693
REMARK  285  A    between atoms: _693  and  _694
REMARK  286  A    between atoms: _697  and  _699
REMARK  287  A    between atoms: _699  and  _700
REMARK  288  A    between atoms: _699  and  _702
REMARK  289  A    between atoms: _705  and  _707
REMARK  290  A    between atoms: _707  and  _708
REMARK  291  A    between atoms: _707  and  _710
REMARK  292  A    between atoms: _710  and  _711
REMARK                            x       y       z     vdW  Elec       q    Type
REMARK                         _______ _______ _______ _____ _____    ______ ____
ROOT
ATOM      1  CA  VAL A   2      63.896   5.472 -11.072  0.00  0.00    +0.148 C 
ENDROOT
BRANCH   1   4
ATOM      2  C   ASP A   1      65.276   7.443 -11.380  0.00  0.00    +0.239 C 
ATOM      3  O   ASP A   1      66.295   6.788 -11.194  0.00  0.00    -0.274 OA
ATOM      4  N   VAL A   2      64.055   6.906 -11.331  0.00  0.00    -0.297 N 
ATOM      5  H   VAL A   2      63.217   7.505 -11.476  0.00  0.00    +0.150 HD
BRANCH   2   6
ATOM      6  CA  ASP A   1      65.372   8.941 -11.651  0.00  0.00    +0.156 C 
BRANCH   6   7
ATOM      7  N   ASP A   1      64.485   9.385 -12.744  0.00  0.00    -0.238 NA
ATOM      8  H   ASP A   1      63.801  10.145 -12.553  0.00  0.00    +0.142 HD
ENDBRANCH   6   7
BRANCH   6   9
ATOM      9  CB  ASP A   1      65.047   9.665 -10.343  0.00  0.00    +0.140 C 
BRANCH   9  10
ATOM     10  CG  ASP A   1      65.322  11.158 -10.419  0.00  0.00    +0.367 C 
ATOM     11  OD2 ASP A   1      64.619  11.998  -9.816  0.00  0.00    -0.246 OA
ATOM     12  OD1 ASP A   1      66.287  11.556 -11.129  0.00  0.00    -0.246 OA
ENDBRANCH   9  10
ENDBRANCH   6   9
ENDBRANCH   2   6
ENDBRANCH   1   4
BRANCH   1  13
ATOM     13  C   VAL A   2      64.424   4.670 -12.246  0.00  0.00    +0.241 C 
ATOM     14  O   VAL A   2      64.949   3.563 -12.078  0.00  0.00    -0.273 OA
ATOM     15  N   SER A   3      64.252   5.191 -13.460  0.00  0.00    -0.296 N 
ATOM     16  H   SER A   3      63.739   6.087 -13.584  0.00  0.00    +0.150 HD
BRANCH  15  17
ATOM     17  CA  SER A   3      64.793   4.485 -14.604  0.00  0.00    +0.166 C 
BRANCH  17  18
ATOM     18  CB  SER A   3      66.321   4.544 -14.592  0.00  0.00    +0.229 C 
ATOM     19  OG  SER A   3      66.988   3.604 -15.021  0.00  0.00    -0.286 OA
ENDBRANCH  17  18
BRANCH  17  20
ATOM     20  C   SER A   3      64.185   4.983 -15.931  0.00  0.00    +0.165 C 
BRANCH  20  21
ATOM     21  O   SER A   3      64.807   6.188 -16.316  0.00  0.00    -0.380 OA
ATOM     22  H   SER A   3      64.665   6.870 -15.613  0.00  0.00    +0.211 HD
ENDBRANCH  20  21
ENDBRANCH  17  20
ENDBRANCH  15  17
ENDBRANCH   1  13
BRANCH   1  23
ATOM     23  CB  VAL A   2      62.423   5.076 -10.775  0.00  0.00    +0.027 C 
ATOM     24  CG2 VAL A   2      61.836   5.878  -9.582  0.00  0.00    +0.002 C 
ATOM     25  CG1 VAL A   2      62.314   3.575 -10.500  0.00  0.00    +0.002 C 
ENDBRANCH   1  23
TORSDOF 11
REMARK  Name = ../refined-set-2016/1rjk/1rjk_pocket.pdb
REMARK  292 active torsions:
REMARK  status: ('A' for Active; 'I' for Inactive)
REMARK    1  A    between atoms: _1  and  _3
REMARK    2  A    between atoms: _3  and  _4
REMARK    3  A    between atoms: _3  and  _6
REMARK    4  A    between atoms: _6  and  _7
REMARK    5  A    between atoms: _10  and  _12
REMARK    6  A    between atoms: _12  and  _13
REMARK    7  A    between atoms: _12  and  _15
REMARK    8  A    between atoms: _15  and  _16
REMARK    9  A    between atoms: _21  and  _22
REMARK   10  A    between atoms: _24  and  _26
REMARK   11  A    between atoms: _26  and  _27
REMARK   12  A    between atoms: _26  and  _29
REMARK   13  A    between atoms: _29  and  _30
REMARK   14  A    between atoms: _34  and  _35
REMARK   15  A    between atoms: _40  and  _42
REMARK   16  A    between atoms: _42  and  _43
REMARK   17  A    between atoms: _42  and  _45
REMARK   18  A    between atoms: _45  and  _46
REMARK   19  A    between atoms: _51  and  _52
REMARK   20  A    between atoms: _54  and  _56
REMARK   21  A    between atoms: _56  and  _57
REMARK   22  A    between atoms: _56  and  _59
REMARK   23  A    between atoms: _59  and  _60
REMARK   24  A    between atoms: _66  and  _68
REMARK   25  A    between atoms: _68  and  _69
REMARK   26  A    between atoms: _68  and  _71
REMARK   27  A    between atoms: _71  and  _72
REMARK   28  A    between atoms: _78  and  _80
REMARK   29  A    between atoms: _80  and  _81
REMARK   30  A    between atoms: _80  and  _83
REMARK   31  A    between atoms: _83  and  _84
REMARK   32  A    between atoms: _84  and  _85
REMARK   33  A    between atoms: _85  and  _86
REMARK   34  A    between atoms: _95  and  _97
REMARK   35  A    between atoms: _97  and  _98
REMARK   36  A    between atoms: _97  and  _100
REMARK   37  A    between atoms: _100  and  _101
REMARK   38  A    between atoms: _104  and  _106
REMARK   39  A    between atoms: _106  and  _107
REMARK   40  A    between atoms: _106  and  _109
REMARK   41  A    between atoms: _109  and  _110
REMARK   42  A    between atoms: _110  and  _111
REMARK   43  A    between atoms: _113  and  _115
REMARK   44  A    between atoms: _115  and  _116
REMARK   45  A    between atoms: _115  and  _118
REMARK   46  A    between atoms: _118  and  _119
REMARK   47  A    between atoms: _123  and  _124
REMARK   48  A    between atoms: _129  and  _131
REMARK   49  A    between atoms: _131  and  _132
REMARK   50  A    between atoms: _131  and  _134
REMARK   51  A    between atoms: _134  and  _135
REMARK   52  A    between atoms: _140  and  _142
REMARK   53  A    between atoms: _142  and  _143
REMARK   54  A    between atoms: _142  and  _145
REMARK   55  A    between atoms: _145  and  _146
REMARK   56  A    between atoms: _149  and  _151
REMARK   57  A    between atoms: _151  and  _152
REMARK   58  A    between atoms: _155  and  _157
REMARK   59  A    between atoms: _157  and  _158
REMARK   60  A    between atoms: _157  and  _160
REMARK   61  A    between atoms: _160  and  _161
REMARK   62  A    between atoms: _164  and  _166
REMARK   63  A    between atoms: _166  and  _167
REMARK   64  A    between atoms: _166  and  _169
REMARK   65  A    between atoms: _169  and  _170
REMARK   66  A    between atoms: _173  and  _175
REMARK   67  A    between atoms: _175  and  _176
REMARK   68  A    between atoms: _175  and  _178
REMARK   69  A    between atoms: _181  and  _183
REMARK   70  A    between atoms: _183  and  _184
REMARK   71  A    between atoms: _183  and  _186
REMARK   72  A    between atoms: _186  and  _187
REMARK   73  A    between atoms: _189  and  _191
REMARK   74  A    between atoms: _191  and  _192
REMARK   75  A    between atoms: _191  and  _194
REMARK   76  A    between atoms: _194  and  _195
REMARK   77  A    between atoms: _200  and  _201
REMARK   78  A    between atoms: _203  and  _205
REMARK   79  A    between atoms: _205  and  _206
REMARK   80  A    between atoms: _205  and  _208
REMARK   81  A    between atoms: _208  and  _209
REMARK   82  A    between atoms: _211  and  _213
REMARK   83  A    between atoms: _213  and  _214
REMARK   84  A    between atoms: _213  and  _216
REMARK   85  A    between atoms: _216  and  _217
REMARK   86  A    between atoms: _220  and  _222
REMARK   87  A    between atoms: _222  and  _223
REMARK   88  A    between atoms: _222  and  _225
REMARK   89  A    between atoms: _225  and  _226
REMARK   90  A    between atoms: _226  and  _227
REMARK   91  A    between atoms: _227  and  _228
REMARK   92  A    between atoms: _228  and  _229
REMARK   93  A    between atoms: _233  and  _235
REMARK   94  A    between atoms: _235  and  _236
REMARK   95  A    between atoms: _235  and  _238
REMARK   96  A    between atoms: _241  and  _243
REMARK   97  A    between atoms: _243  and  _244
REMARK   98  A    between atoms: _247  and  _249
REMARK   99  A    between atoms: _249  and  _250
REMARK  100  A    between atoms: _249  and  _252
REMARK  101  A    between atoms: _252  and  _253
REMARK  102  A    between atoms: _256  and  _258
REMARK  103  A    between atoms: _258  and  _259
REMARK  104  A    between atoms: _258  and  _261
REMARK  105  A    between atoms: _261  and  _262
REMARK  106  A    between atoms: _262  and  _263
REMARK  107  A    between atoms: _266  and  _268
REMARK  108  A    between atoms: _268  and  _269
REMARK  109  A    between atoms: _268  and  _271
REMARK  110  A    between atoms: _274  and  _276
REMARK  111  A    between atoms: _276  and  _277
REMARK  112  A    between atoms: _276  and  _279
REMARK  113  A    between atoms: _279  and  _280
REMARK  114  A    between atoms: _283  and  _285
REMARK  115  A    between atoms: _285  and  _286
REMARK  116  A    between atoms: _285  and  _288
REMARK  117  A    between atoms: _288  and  _289
REMARK  118  A    between atoms: _289  and  _290
REMARK  119  A    between atoms: _292  and  _294
REMARK  120  A    between atoms: _294  and  _295
REMARK  121  A    between atoms: _294  and  _297
REMARK  122  A    between atoms: _297  and  _298
REMARK  123  A    between atoms: _301  and  _303
REMARK  124  A    between atoms: _303  and  _304
REMARK  125  A    between atoms: _303  and  _306
REMARK  126  A    between atoms: _306  and  _307
REMARK  127  A    between atoms: _307  and  _308
REMARK  128  A    between atoms: _308  and  _309
REMARK  129  A    between atoms: _318  and  _320
REMARK  130  A    between atoms: _320  and  _321
REMARK  131  A    between atoms: _320  and  _323
REMARK  132  A    between atoms: _323  and  _324
REMARK  133  A    between atoms: _326  and  _328
REMARK  134  A    between atoms: _328  and  _329
REMARK  135  A    between atoms: _328  and  _331
REMARK  136  A    between atoms: _331  and  _332
REMARK  137  A    between atoms: _337  and  _339
REMARK  138  A    between atoms: _339  and  _340
REMARK  139  A    between atoms: _339  and  _342
REMARK  140  A    between atoms: _342  and  _343
REMARK  141  A    between atoms: _343  and  _344
REMARK  142  A    between atoms: _349  and  _351
REMARK  143  A    between atoms: _351  and  _352
REMARK  144  A    between atoms: _351  and  _354
REMARK  145  A    between atoms: _354  and  _355
REMARK  146  A    between atoms: _357  and  _359
REMARK  147  A    between atoms: _359  and  _360
REMARK  148  A    between atoms: _359  and  _362
REMARK  149  A    between atoms: _362  and  _363
REMARK  150  A    between atoms: _369  and  _371
REMARK  151  A    between atoms: _371  and  _372
REMARK  152  A    between atoms: _371  and  _374
REMARK  153  A    between atoms: _374  and  _375
REMARK  154  A    between atoms: _377  and  _379
REMARK  155  A    between atoms: _379  and  _380
REMARK  156  A    between atoms: _379  and  _382
REMARK  157  A    between atoms: _382  and  _383
REMARK  158  A    between atoms: _393  and  _395
REMARK  159  A    between atoms: _395  and  _396
REMARK  160  A    between atoms: _395  and  _398
REMARK  161  A    between atoms: _398  and  _399
REMARK  162  A    between atoms: _402  and  _404
REMARK  163  A    between atoms: _404  and  _405
REMARK  164  A    between atoms: _404  and  _407
REMARK  165  A    between atoms: _409  and  _411
REMARK  166  A    between atoms: _411  and  _412
REMARK  167  A    between atoms: _411  and  _414
REMARK  168  A    between atoms: _414  and  _415
REMARK  169  A    between atoms: _420  and  _421
REMARK  170  A    between atoms: _423  and  _425
REMARK  171  A    between atoms: _425  and  _426
REMARK  172  A    between atoms: _425  and  _428
REMARK  173  A    between atoms: _428  and  _429
REMARK  174  A    between atoms: _429  and  _430
REMARK  175  A    between atoms: _430  and  _431
REMARK  176  A    between atoms: _431  and  _432
REMARK  177  A    between atoms: _436  and  _438
REMARK  178  A    between atoms: _438  and  _439
REMARK  179  A    between atoms: _438  and  _441
REMARK  180  A    between atoms: _441  and  _442
REMARK  181  A    between atoms: _447  and  _448
REMARK  182  A    between atoms: _450  and  _452
REMARK  183  A    between atoms: _452  and  _453
REMARK  184  A    between atoms: _452  and  _455
REMARK  185  A    between atoms: _455  and  _456
REMARK  186  A    between atoms: _459  and  _461
REMARK  187  A    between atoms: _461  and  _462
REMARK  188  A    between atoms: _461  and  _464
REMARK  189  A    between atoms: _464  and  _465
REMARK  190  A    between atoms: _468  and  _470
REMARK  191  A    between atoms: _470  and  _471
REMARK  192  A    between atoms: _470  and  _473
REMARK  193  A    between atoms: _476  and  _478
REMARK  194  A    between atoms: _478  and  _479
REMARK  195  A    between atoms: _478  and  _481
REMARK  196  A    between atoms: _481  and  _482
REMARK  197  A    between atoms: _484  and  _486
REMARK  198  A    between atoms: _486  and  _487
REMARK  199  A    between atoms: _490  and  _492
REMARK  200  A    between atoms: _492  and  _493
REMARK  201  A    between atoms: _495  and  _497
REMARK  202  A    between atoms: _497  and  _498
REMARK  203  A    between atoms: _497  and  _500
REMARK  204  A    between atoms: _500  and  _501
REMARK  205  A    between atoms: _506  and  _508
REMARK  206  A    between atoms: _508  and  _509
REMARK  207  A    between atoms: _508  and  _511
REMARK  208  A    between atoms: _511  and  _512
REMARK  209  A    between atoms: _515  and  _517
REMARK  210  A    between atoms: _517  and  _518
REMARK  211  A    between atoms: _517  and  _520
REMARK  212  A    between atoms: _520  and  _521
REMARK  213  A    between atoms: _524  and  _526
REMARK  214  A    between atoms: _526  and  _527
REMARK  215  A    between atoms: _526  and  _529
REMARK  216  A    between atoms: _529  and  _530
REMARK  217  A    between atoms: _533  and  _535
REMARK  218  A    between atoms: _535  and  _536
REMARK  219  A    between atoms: _535  and  _538
REMARK  220  A    between atoms: _538  and  _539
REMARK  221  A    between atoms: _545  and  _547
REMARK  222  A    between atoms: _547  and  _548
REMARK  223  A    between atoms: _547  and  _550
REMARK  224  A    between atoms: _550  and  _551
REMARK  225  A    between atoms: _551  and  _552
REMARK  226  A    between atoms: _557  and  _559
REMARK  227  A    between atoms: _559  and  _560
REMARK  228  A    between atoms: _559  and  _562
REMARK  229  A    between atoms: _562  and  _563
REMARK  230  A    between atoms: _566  and  _568
REMARK  231  A    between atoms: _568  and  _569
REMARK  232  A    between atoms: _568  and  _571
REMARK  233  A    between atoms: _571  and  _572
REMARK  234  A    between atoms: _572  and  _573
REMARK  235  A    between atoms: _576  and  _578
REMARK  236  A    between atoms: _578  and  _579
REMARK  237  A    between atoms: _578  and  _581
REMARK  238  A    between atoms: _581  and  _582
REMARK  239  A    between atoms: _587  and  _589
REMARK  240  A    between atoms: _589  and  _590
REMARK  241  A    between atoms: _589  and  _592
REMARK  242  A    between atoms: _592  and  _593
REMARK  243  A    between atoms: _595  and  _597
REMARK  244  A    between atoms: _597  and  _598
REMARK  245  A    between atoms: _597  and  _600
REMARK  246  A    between atoms: _600  and  _601
REMARK  247  A    between atoms: _601  and  _602
REMARK  248  A    between atoms: _607  and  _609
REMARK  249  A    between atoms: _609  and  _610
REMARK  250  A    between atoms: _609  and  _612
REMARK  251  A    between atoms: _612  and  _613
REMARK  252  A    between atoms: _618  and  _619
REMARK  253  A    between atoms: _621  and  _623
REMARK  254  A    between atoms: _623  and  _624
REMARK  255  A    between atoms: _623  and  _626
REMARK  256  A    between atoms: _626  and  _627
REMARK  257  A    between atoms: _627  and  _628
REMARK  258  A    between atoms: _628  and  _629
REMARK  259  A    between atoms: _638  and  _640
REMARK  260  A    between atoms: _640  and  _641
REMARK  261  A    between atoms: _640  and  _643
REMARK  262  A    between atoms: _643  and  _644
REMARK  263  A    between atoms: _647  and  _649
REMARK  264  A    between atoms: _649  and  _650
REMARK  265  A    between atoms: _649  and  _652
REMARK  266  A    between atoms: _652  and  _653
REMARK  267  A    between atoms: _655  and  _657
REMARK  268  A    between atoms: _657  and  _658
REMARK  269  A    between atoms: _657  and  _660
REMARK  270  A    between atoms: _660  and  _661
REMARK  271  A    between atoms: _666  and  _668
REMARK  272  A    between atoms: _668  and  _669
REMARK  273  A    between atoms: _668  and  _671
REMARK  274  A    between atoms: _671  and  _672
REMARK  275  A    between atoms: _672  and  _673
REMARK  276  A    between atoms: _673  and  _674
REMARK  277  A    between atoms: _674  and  _675
REMARK  278  A    between atoms: _679  and  _681
REMARK  279  A    between atoms: _681  and  _682
REMARK  280  A    between atoms: _681  and  _684
REMARK  281  A    between atoms: _684  and  _685
REMARK  282  A    between atoms: _688  and  _690
REMARK  283  A    between atoms: _690  and  _691
REMARK  284  A    between atoms: _690  and  _693
REMARK  285  A    between atoms: _693  and  _694
REMARK  286  A    between atoms: _697  and  _699
REMARK  287  A    between atoms: _699  and  _700
REMARK  288  A    between atoms: _699  and  _702
REMARK  289  A    between atoms: _705  and  _707
REMARK  290  A    between atoms: _707  and  _708
REMARK  291  A    between atoms: _707  and  _710
REMARK  292  A    between atoms: _710  and  _711
REMARK                            x       y       z     vdW  Elec       q    Type
REMARK                         _______ _______ _______ _____ _____    ______ ____
ROOT
ATOM      1  C   GLY A   2      66.636  -0.368 -13.997  0.00  0.00    +0.243 C 
ATOM      2  N   HIS A   3      65.591   0.443 -13.889  0.00  0.00    -0.298 N 
ATOM      3  H   HIS A   3      65.747   1.456 -13.710  0.00  0.00    +0.150 HD
ATOM      4  O   GLY A   2      66.524  -1.573 -14.264  0.00  0.00    -0.273 OA
ENDROOT
BRANCH   1   5
ATOM      5  CA  GLY A   2      68.006   0.249 -13.785  0.00  0.00    +0.176 C 
BRANCH   5   8
ATOM      6  C   ALA A   1      68.341   1.621 -11.786  0.00  0.00    +0.238 C 
ATOM      7  O   ALA A   1      68.512   0.659 -11.064  0.00  0.00    -0.274 OA
ATOM      8  N   GLY A   2      68.049   1.531 -13.091  0.00  0.00    -0.296 N 
ATOM      9  H   GLY A   2      67.847   2.401 -13.624  0.00  0.00    +0.150 HD
BRANCH   6  10
ATOM     10  CA  ALA A   1      68.433   3.006 -11.186  0.00  0.00    +0.145 C 
ATOM     11  CB  ALA A   1      67.646   3.043  -9.854  0.00  0.00    +0.028 C 
BRANCH  10  12
ATOM     12  N   ALA A   1      67.988   4.041 -12.125  0.00  0.00    -0.238 NA
ATOM     13  H   ALA A   1      66.973   4.139 -12.331  0.00  0.00    +0.142 HD
ENDBRANCH  10  12
ENDBRANCH   6  10
ENDBRANCH   5   8
ENDBRANCH   1   5
BRANCH   2  14
ATOM     14  CA  HIS A   3      64.230  -0.060 -14.017  0.00  0.00    +0.143 C 
BRANCH  14  15
ATOM     15  C   HIS A   3      63.533   0.500 -15.237  0.00  0.00    +0.227 C 
ATOM     16  O   HIS A   3      63.888   1.557 -15.718  0.00  0.00    -0.286 OA
ENDBRANCH  14  15
BRANCH  14  17
ATOM     17  CB  HIS A   3      63.438   0.194 -12.728  0.00  0.00    +0.075 C 
BRANCH  17  18
ATOM     18  CG  HIS A   3      63.843  -0.718 -11.609  0.00  0.00    +0.082 A 
ATOM     19  CD2 HIS A   3      64.512  -0.472 -10.454  0.00  0.00    +0.115 A 
ATOM     20  NE2 HIS A   3      64.649  -1.677  -9.801  0.00  0.00    -0.221 NA
ATOM     21  CE1 HIS A   3      64.088  -2.629 -10.533  0.00  0.00    +0.199 A 
ATOM     22  ND1 HIS A   3      63.605  -2.077 -11.633  0.00  0.00    -0.227 NA
ENDBRANCH  17  18
ENDBRANCH  14  17
ENDBRANCH   2  14
TORSDOF 8
REMARK  Name = ../refined-set-2016/1rjk/1rjk_pocket.pdb
REMARK  292 active torsions:
REMARK  status: ('A' for Active; 'I' for Inactive)
REMARK    1  A    between atoms: _1  and  _3
REMARK    2  A    between atoms: _3  and  _4
REMARK    3  A    between atoms: _3  and  _6
REMARK    4  A    between atoms: _6  and  _7
REMARK    5  A    between atoms: _10  and  _12
REMARK    6  A    between atoms: _12  and  _13
REMARK    7  A    between atoms: _12  and  _15
REMARK    8  A    between atoms: _15  and  _16
REMARK    9  A    between atoms: _21  and  _22
REMARK   10  A    between atoms: _24  and  _26
REMARK   11  A    between atoms: _26  and  _27
REMARK   12  A    between atoms: _26  and  _29
REMARK   13  A    between atoms: _29  and  _30
REMARK   14  A    between atoms: _34  and  _35
REMARK   15  A    between atoms: _40  and  _42
REMARK   16  A    between atoms: _42  and  _43
REMARK   17  A    between atoms: _42  and  _45
REMARK   18  A    between atoms: _45  and  _46
REMARK   19  A    between atoms: _51  and  _52
REMARK   20  A    between atoms: _54  and  _56
REMARK   21  A    between atoms: _56  and  _57
REMARK   22  A    between atoms: _56  and  _59
REMARK   23  A    between atoms: _59  and  _60
REMARK   24  A    between atoms: _66  and  _68
REMARK   25  A    between atoms: _68  and  _69
REMARK   26  A    between atoms: _68  and  _71
REMARK   27  A    between atoms: _71  and  _72
REMARK   28  A    between atoms: _78  and  _80
REMARK   29  A    between atoms: _80  and  _81
REMARK   30  A    between atoms: _80  and  _83
REMARK   31  A    between atoms: _83  and  _84
REMARK   32  A    between atoms: _84  and  _85
REMARK   33  A    between atoms: _85  and  _86
REMARK   34  A    between atoms: _95  and  _97
REMARK   35  A    between atoms: _97  and  _98
REMARK   36  A    between atoms: _97  and  _100
REMARK   37  A    between atoms: _100  and  _101
REMARK   38  A    between atoms: _104  and  _106
REMARK   39  A    between atoms: _106  and  _107
REMARK   40  A    between atoms: _106  and  _109
REMARK   41  A    between atoms: _109  and  _110
REMARK   42  A    between atoms: _110  and  _111
REMARK   43  A    between atoms: _113  and  _115
REMARK   44  A    between atoms: _115  and  _116
REMARK   45  A    between atoms: _115  and  _118
REMARK   46  A    between atoms: _118  and  _119
REMARK   47  A    between atoms: _123  and  _124
REMARK   48  A    between atoms: _129  and  _131
REMARK   49  A    between atoms: _131  and  _132
REMARK   50  A    between atoms: _131  and  _134
REMARK   51  A    between atoms: _134  and  _135
REMARK   52  A    between atoms: _140  and  _142
REMARK   53  A    between atoms: _142  and  _143
REMARK   54  A    between atoms: _142  and  _145
REMARK   55  A    between atoms: _145  and  _146
REMARK   56  A    between atoms: _149  and  _151
REMARK   57  A    between atoms: _151  and  _152
REMARK   58  A    between atoms: _155  and  _157
REMARK   59  A    between atoms: _157  and  _158
REMARK   60  A    between atoms: _157  and  _160
REMARK   61  A    between atoms: _160  and  _161
REMARK   62  A    between atoms: _164  and  _166
REMARK   63  A    between atoms: _166  and  _167
REMARK   64  A    between atoms: _166  and  _169
REMARK   65  A    between atoms: _169  and  _170
REMARK   66  A    between atoms: _173  and  _175
REMARK   67  A    between atoms: _175  and  _176
REMARK   68  A    between atoms: _175  and  _178
REMARK   69  A    between atoms: _181  and  _183
REMARK   70  A    between atoms: _183  and  _184
REMARK   71  A    between atoms: _183  and  _186
REMARK   72  A    between atoms: _186  and  _187
REMARK   73  A    between atoms: _189  and  _191
REMARK   74  A    between atoms: _191  and  _192
REMARK   75  A    between atoms: _191  and  _194
REMARK   76  A    between atoms: _194  and  _195
REMARK   77  A    between atoms: _200  and  _201
REMARK   78  A    between atoms: _203  and  _205
REMARK   79  A    between atoms: _205  and  _206
REMARK   80  A    between atoms: _205  and  _208
REMARK   81  A    between atoms: _208  and  _209
REMARK   82  A    between atoms: _211  and  _213
REMARK   83  A    between atoms: _213  and  _214
REMARK   84  A    between atoms: _213  and  _216
REMARK   85  A    between atoms: _216  and  _217
REMARK   86  A    between atoms: _220  and  _222
REMARK   87  A    between atoms: _222  and  _223
REMARK   88  A    between atoms: _222  and  _225
REMARK   89  A    between atoms: _225  and  _226
REMARK   90  A    between atoms: _226  and  _227
REMARK   91  A    between atoms: _227  and  _228
REMARK   92  A    between atoms: _228  and  _229
REMARK   93  A    between atoms: _233  and  _235
REMARK   94  A    between atoms: _235  and  _236
REMARK   95  A    between atoms: _235  and  _238
REMARK   96  A    between atoms: _241  and  _243
REMARK   97  A    between atoms: _243  and  _244
REMARK   98  A    between atoms: _247  and  _249
REMARK   99  A    between atoms: _249  and  _250
REMARK  100  A    between atoms: _249  and  _252
REMARK  101  A    between atoms: _252  and  _253
REMARK  102  A    between atoms: _256  and  _258
REMARK  103  A    between atoms: _258  and  _259
REMARK  104  A    between atoms: _258  and  _261
REMARK  105  A    between atoms: _261  and  _262
REMARK  106  A    between atoms: _262  and  _263
REMARK  107  A    between atoms: _266  and  _268
REMARK  108  A    between atoms: _268  and  _269
REMARK  109  A    between atoms: _268  and  _271
REMARK  110  A    between atoms: _274  and  _276
REMARK  111  A    between atoms: _276  and  _277
REMARK  112  A    between atoms: _276  and  _279
REMARK  113  A    between atoms: _279  and  _280
REMARK  114  A    between atoms: _283  and  _285
REMARK  115  A    between atoms: _285  and  _286
REMARK  116  A    between atoms: _285  and  _288
REMARK  117  A    between atoms: _288  and  _289
REMARK  118  A    between atoms: _289  and  _290
REMARK  119  A    between atoms: _292  and  _294
REMARK  120  A    between atoms: _294  and  _295
REMARK  121  A    between atoms: _294  and  _297
REMARK  122  A    between atoms: _297  and  _298
REMARK  123  A    between atoms: _301  and  _303
REMARK  124  A    between atoms: _303  and  _304
REMARK  125  A    between atoms: _303  and  _306
REMARK  126  A    between atoms: _306  and  _307
REMARK  127  A    between atoms: _307  and  _308
REMARK  128  A    between atoms: _308  and  _309
REMARK  129  A    between atoms: _318  and  _320
REMARK  130  A    between atoms: _320  and  _321
REMARK  131  A    between atoms: _320  and  _323
REMARK  132  A    between atoms: _323  and  _324
REMARK  133  A    between atoms: _326  and  _328
REMARK  134  A    between atoms: _328  and  _329
REMARK  135  A    between atoms: _328  and  _331
REMARK  136  A    between atoms: _331  and  _332
REMARK  137  A    between atoms: _337  and  _339
REMARK  138  A    between atoms: _339  and  _340
REMARK  139  A    between atoms: _339  and  _342
REMARK  140  A    between atoms: _342  and  _343
REMARK  141  A    between atoms: _343  and  _344
REMARK  142  A    between atoms: _349  and  _351
REMARK  143  A    between atoms: _351  and  _352
REMARK  144  A    between atoms: _351  and  _354
REMARK  145  A    between atoms: _354  and  _355
REMARK  146  A    between atoms: _357  and  _359
REMARK  147  A    between atoms: _359  and  _360
REMARK  148  A    between atoms: _359  and  _362
REMARK  149  A    between atoms: _362  and  _363
REMARK  150  A    between atoms: _369  and  _371
REMARK  151  A    between atoms: _371  and  _372
REMARK  152  A    between atoms: _371  and  _374
REMARK  153  A    between atoms: _374  and  _375
REMARK  154  A    between atoms: _377  and  _379
REMARK  155  A    between atoms: _379  and  _380
REMARK  156  A    between atoms: _379  and  _382
REMARK  157  A    between atoms: _382  and  _383
REMARK  158  A    between atoms: _393  and  _395
REMARK  159  A    between atoms: _395  and  _396
REMARK  160  A    between atoms: _395  and  _398
REMARK  161  A    between atoms: _398  and  _399
REMARK  162  A    between atoms: _402  and  _404
REMARK  163  A    between atoms: _404  and  _405
REMARK  164  A    between atoms: _404  and  _407
REMARK  165  A    between atoms: _409  and  _411
REMARK  166  A    between atoms: _411  and  _412
REMARK  167  A    between atoms: _411  and  _414
REMARK  168  A    between atoms: _414  and  _415
REMARK  169  A    between atoms: _420  and  _421
REMARK  170  A    between atoms: _423  and  _425
REMARK  171  A    between atoms: _425  and  _426
REMARK  172  A    between atoms: _425  and  _428
REMARK  173  A    between atoms: _428  and  _429
REMARK  174  A    between atoms: _429  and  _430
REMARK  175  A    between atoms: _430  and  _431
REMARK  176  A    between atoms: _431  and  _432
REMARK  177  A    between atoms: _436  and  _438
REMARK  178  A    between atoms: _438  and  _439
REMARK  179  A    between atoms: _438  and  _441
REMARK  180  A    between atoms: _441  and  _442
REMARK  181  A    between atoms: _447  and  _448
REMARK  182  A    between atoms: _450  and  _452
REMARK  183  A    between atoms: _452  and  _453
REMARK  184  A    between atoms: _452  and  _455
REMARK  185  A    between atoms: _455  and  _456
REMARK  186  A    between atoms: _459  and  _461
REMARK  187  A    between atoms: _461  and  _462
REMARK  188  A    between atoms: _461  and  _464
REMARK  189  A    between atoms: _464  and  _465
REMARK  190  A    between atoms: _468  and  _470
REMARK  191  A    between atoms: _470  and  _471
REMARK  192  A    between atoms: _470  and  _473
REMARK  193  A    between atoms: _476  and  _478
REMARK  194  A    between atoms: _478  and  _479
REMARK  195  A    between atoms: _478  and  _481
REMARK  196  A    between atoms: _481  and  _482
REMARK  197  A    between atoms: _484  and  _486
REMARK  198  A    between atoms: _486  and  _487
REMARK  199  A    between atoms: _490  and  _492
REMARK  200  A    between atoms: _492  and  _493
REMARK  201  A    between atoms: _495  and  _497
REMARK  202  A    between atoms: _497  and  _498
REMARK  203  A    between atoms: _497  and  _500
REMARK  204  A    between atoms: _500  and  _501
REMARK  205  A    between atoms: _506  and  _508
REMARK  206  A    between atoms: _508  and  _509
REMARK  207  A    between atoms: _508  and  _511
REMARK  208  A    between atoms: _511  and  _512
REMARK  209  A    between atoms: _515  and  _517
REMARK  210  A    between atoms: _517  and  _518
REMARK  211  A    between atoms: _517  and  _520
REMARK  212  A    between atoms: _520  and  _521
REMARK  213  A    between atoms: _524  and  _526
REMARK  214  A    between atoms: _526  and  _527
REMARK  215  A    between atoms: _526  and  _529
REMARK  216  A    between atoms: _529  and  _530
REMARK  217  A    between atoms: _533  and  _535
REMARK  218  A    between atoms: _535  and  _536
REMARK  219  A    between atoms: _535  and  _538
REMARK  220  A    between atoms: _538  and  _539
REMARK  221  A    between atoms: _545  and  _547
REMARK  222  A    between atoms: _547  and  _548
REMARK  223  A    between atoms: _547  and  _550
REMARK  224  A    between atoms: _550  and  _551
REMARK  225  A    between atoms: _551  and  _552
REMARK  226  A    between atoms: _557  and  _559
REMARK  227  A    between atoms: _559  and  _560
REMARK  228  A    between atoms: _559  and  _562
REMARK  229  A    between atoms: _562  and  _563
REMARK  230  A    between atoms: _566  and  _568
REMARK  231  A    between atoms: _568  and  _569
REMARK  232  A    between atoms: _568  and  _571
REMARK  233  A    between atoms: _571  and  _572
REMARK  234  A    between atoms: _572  and  _573
REMARK  235  A    between atoms: _576  and  _578
REMARK  236  A    between atoms: _578  and  _579
REMARK  237  A    between atoms: _578  and  _581
REMARK  238  A    between atoms: _581  and  _582
REMARK  239  A    between atoms: _587  and  _589
REMARK  240  A    between atoms: _589  and  _590
REMARK  241  A    between atoms: _589  and  _592
REMARK  242  A    between atoms: _592  and  _593
REMARK  243  A    between atoms: _595  and  _597
REMARK  244  A    between atoms: _597  and  _598
REMARK  245  A    between atoms: _597  and  _600
REMARK  246  A    between atoms: _600  and  _601
REMARK  247  A    between atoms: _601  and  _602
REMARK  248  A    between atoms: _607  and  _609
REMARK  249  A    between atoms: _609  and  _610
REMARK  250  A    between atoms: _609  and  _612
REMARK  251  A    between atoms: _612  and  _613
REMARK  252  A    between atoms: _618  and  _619
REMARK  253  A    between atoms: _621  and  _623
REMARK  254  A    between atoms: _623  and  _624
REMARK  255  A    between atoms: _623  and  _626
REMARK  256  A    between atoms: _626  and  _627
REMARK  257  A    between atoms: _627  and  _628
REMARK  258  A    between atoms: _628  and  _629
REMARK  259  A    between atoms: _638  and  _640
REMARK  260  A    between atoms: _640  and  _641
REMARK  261  A    between atoms: _640  and  _643
REMARK  262  A    between atoms: _643  and  _644
REMARK  263  A    between atoms: _647  and  _649
REMARK  264  A    between atoms: _649  and  _650
REMARK  265  A    between atoms: _649  and  _652
REMARK  266  A    between atoms: _652  and  _653
REMARK  267  A    between atoms: _655  and  _657
REMARK  268  A    between atoms: _657  and  _658
REMARK  269  A    between atoms: _657  and  _660
REMARK  270  A    between atoms: _660  and  _661
REMARK  271  A    between atoms: _666  and  _668
REMARK  272  A    between atoms: _668  and  _669
REMARK  273  A    between atoms: _668  and  _671
REMARK  274  A    between atoms: _671  and  _672
REMARK  275  A    between atoms: _672  and  _673
REMARK  276  A    between atoms: _673  and  _674
REMARK  277  A    between atoms: _674  and  _675
REMARK  278  A    between atoms: _679  and  _681
REMARK  279  A    between atoms: _681  and  _682
REMARK  280  A    between atoms: _681  and  _684
REMARK  281  A    between atoms: _684  and  _685
REMARK  282  A    between atoms: _688  and  _690
REMARK  283  A    between atoms: _690  and  _691
REMARK  284  A    between atoms: _690  and  _693
REMARK  285  A    between atoms: _693  and  _694
REMARK  286  A    between atoms: _697  and  _699
REMARK  287  A    between atoms: _699  and  _700
REMARK  288  A    between atoms: _699  and  _702
REMARK  289  A    between atoms: _705  and  _707
REMARK  290  A    between atoms: _707  and  _708
REMARK  291  A    between atoms: _707  and  _710
REMARK  292  A    between atoms: _710  and  _711
REMARK                            x       y       z     vdW  Elec       q    Type
REMARK                         _______ _______ _______ _____ _____    ______ ____
ROOT
ATOM      1  C   LEU A   1      57.019  -0.092 -13.119  0.00  0.00    +0.238 C 
ATOM      2  O   LEU A   1      56.074   0.082 -12.346  0.00  0.00    -0.274 OA
ATOM      3  N   ILE A   2      57.674   0.910 -13.701  0.00  0.00    -0.298 N 
ATOM      4  H   ILE A   2      58.341   0.714 -14.474  0.00  0.00    +0.150 HD
ENDROOT
BRANCH   1   5
ATOM      5  CA  LEU A   1      57.516  -1.491 -13.430  0.00  0.00    +0.145 C 
BRANCH   5   6
ATOM      6  N   LEU A   1      57.700  -1.660 -14.882  0.00  0.00    -0.238 NA
ATOM      7  H   LEU A   1      58.603  -1.372 -15.309  0.00  0.00    +0.142 HD
ENDBRANCH   5   6
BRANCH   5   8
ATOM      8  CB  LEU A   1      58.825  -1.732 -12.671  0.00  0.00    +0.026 C 
BRANCH   8   9
ATOM      9  CG  LEU A   1      58.777  -1.511 -11.135  0.00  0.00    +0.002 C 
ATOM     10  CD2 LEU A   1      60.172  -1.693 -10.504  0.00  0.00    +0.000 C 
ATOM     11  CD1 LEU A   1      57.767  -2.440 -10.521  0.00  0.00    +0.000 C 
ENDBRANCH   8   9
ENDBRANCH   5   8
ENDBRANCH   1   5
BRANCH   3  12
ATOM     12  CA  ILE A   2      57.457   2.292 -13.254  0.00  0.00    +0.137 C 
BRANCH  12  13
ATOM     13  C   ILE A   2      56.050   2.829 -13.554  0.00  0.00    +0.227 C 
ATOM     14  O   ILE A   2      55.467   3.533 -12.732  0.00  0.00    -0.286 OA
ENDBRANCH  12  13
BRANCH  12  15
ATOM     15  CB  ILE A   2      58.550   3.241 -13.806  0.00  0.00    +0.026 C 
ATOM     16  CG2 ILE A   2      58.235   4.702 -13.454  0.00  0.00    +0.002 C 
BRANCH  15  17
ATOM     17  CG1 ILE A   2      59.919   2.856 -13.265  0.00  0.00    +0.002 C 
ATOM     18  CD1 ILE A   2      61.068   3.445 -14.044  0.00  0.00    +0.000 C 
ENDBRANCH  15  17
ENDBRANCH  12  15
ENDBRANCH   3  12
TORSDOF 8
REMARK  Name = ../refined-set-2016/1rjk/1rjk_pocket.pdb
REMARK  292 active torsions:
REMARK  status: ('A' for Active; 'I' for Inactive)
REMARK    1  A    between atoms: _1  and  _3
REMARK    2  A    between atoms: _3  and  _4
REMARK    3  A    between atoms: _3  and  _6
REMARK    4  A    between atoms: _6  and  _7
REMARK    5  A    between atoms: _10  and  _12
REMARK    6  A    between atoms: _12  and  _13
REMARK    7  A    between atoms: _12  and  _15
REMARK    8  A    between atoms: _15  and  _16
REMARK    9  A    between atoms: _21  and  _22
REMARK   10  A    between atoms: _24  and  _26
REMARK   11  A    between atoms: _26  and  _27
REMARK   12  A    between atoms: _26  and  _29
REMARK   13  A    between atoms: _29  and  _30
REMARK   14  A    between atoms: _34  and  _35
REMARK   15  A    between atoms: _40  and  _42
REMARK   16  A    between atoms: _42  and  _43
REMARK   17  A    between atoms: _42  and  _45
REMARK   18  A    between atoms: _45  and  _46
REMARK   19  A    between atoms: _51  and  _52
REMARK   20  A    between atoms: _54  and  _56
REMARK   21  A    between atoms: _56  and  _57
REMARK   22  A    between atoms: _56  and  _59
REMARK   23  A    between atoms: _59  and  _60
REMARK   24  A    between atoms: _66  and  _68
REMARK   25  A    between atoms: _68  and  _69
REMARK   26  A    between atoms: _68  and  _71
REMARK   27  A    between atoms: _71  and  _72
REMARK   28  A    between atoms: _78  and  _80
REMARK   29  A    between atoms: _80  and  _81
REMARK   30  A    between atoms: _80  and  _83
REMARK   31  A    between atoms: _83  and  _84
REMARK   32  A    between atoms: _84  and  _85
REMARK   33  A    between atoms: _85  and  _86
REMARK   34  A    between atoms: _95  and  _97
REMARK   35  A    between atoms: _97  and  _98
REMARK   36  A    between atoms: _97  and  _100
REMARK   37  A    between atoms: _100  and  _101
REMARK   38  A    between atoms: _104  and  _106
REMARK   39  A    between atoms: _106  and  _107
REMARK   40  A    between atoms: _106  and  _109
REMARK   41  A    between atoms: _109  and  _110
REMARK   42  A    between atoms: _110  and  _111
REMARK   43  A    between atoms: _113  and  _115
REMARK   44  A    between atoms: _115  and  _116
REMARK   45  A    between atoms: _115  and  _118
REMARK   46  A    between atoms: _118  and  _119
REMARK   47  A    between atoms: _123  and  _124
REMARK   48  A    between atoms: _129  and  _131
REMARK   49  A    between atoms: _131  and  _132
REMARK   50  A    between atoms: _131  and  _134
REMARK   51  A    between atoms: _134  and  _135
REMARK   52  A    between atoms: _140  and  _142
REMARK   53  A    between atoms: _142  and  _143
REMARK   54  A    between atoms: _142  and  _145
REMARK   55  A    between atoms: _145  and  _146
REMARK   56  A    between atoms: _149  and  _151
REMARK   57  A    between atoms: _151  and  _152
REMARK   58  A    between atoms: _155  and  _157
REMARK   59  A    between atoms: _157  and  _158
REMARK   60  A    between atoms: _157  and  _160
REMARK   61  A    between atoms: _160  and  _161
REMARK   62  A    between atoms: _164  and  _166
REMARK   63  A    between atoms: _166  and  _167
REMARK   64  A    between atoms: _166  and  _169
REMARK   65  A    between atoms: _169  and  _170
REMARK   66  A    between atoms: _173  and  _175
REMARK   67  A    between atoms: _175  and  _176
REMARK   68  A    between atoms: _175  and  _178
REMARK   69  A    between atoms: _181  and  _183
REMARK   70  A    between atoms: _183  and  _184
REMARK   71  A    between atoms: _183  and  _186
REMARK   72  A    between atoms: _186  and  _187
REMARK   73  A    between atoms: _189  and  _191
REMARK   74  A    between atoms: _191  and  _192
REMARK   75  A    between atoms: _191  and  _194
REMARK   76  A    between atoms: _194  and  _195
REMARK   77  A    between atoms: _200  and  _201
REMARK   78  A    between atoms: _203  and  _205
REMARK   79  A    between atoms: _205  and  _206
REMARK   80  A    between atoms: _205  and  _208
REMARK   81  A    between atoms: _208  and  _209
REMARK   82  A    between atoms: _211  and  _213
REMARK   83  A    between atoms: _213  and  _214
REMARK   84  A    between atoms: _213  and  _216
REMARK   85  A    between atoms: _216  and  _217
REMARK   86  A    between atoms: _220  and  _222
REMARK   87  A    between atoms: _222  and  _223
REMARK   88  A    between atoms: _222  and  _225
REMARK   89  A    between atoms: _225  and  _226
REMARK   90  A    between atoms: _226  and  _227
REMARK   91  A    between atoms: _227  and  _228
REMARK   92  A    between atoms: _228  and  _229
REMARK   93  A    between atoms: _233  and  _235
REMARK   94  A    between atoms: _235  and  _236
REMARK   95  A    between atoms: _235  and  _238
REMARK   96  A    between atoms: _241  and  _243
REMARK   97  A    between atoms: _243  and  _244
REMARK   98  A    between atoms: _247  and  _249
REMARK   99  A    between atoms: _249  and  _250
REMARK  100  A    between atoms: _249  and  _252
REMARK  101  A    between atoms: _252  and  _253
REMARK  102  A    between atoms: _256  and  _258
REMARK  103  A    between atoms: _258  and  _259
REMARK  104  A    between atoms: _258  and  _261
REMARK  105  A    between atoms: _261  and  _262
REMARK  106  A    between atoms: _262  and  _263
REMARK  107  A    between atoms: _266  and  _268
REMARK  108  A    between atoms: _268  and  _269
REMARK  109  A    between atoms: _268  and  _271
REMARK  110  A    between atoms: _274  and  _276
REMARK  111  A    between atoms: _276  and  _277
REMARK  112  A    between atoms: _276  and  _279
REMARK  113  A    between atoms: _279  and  _280
REMARK  114  A    between atoms: _283  and  _285
REMARK  115  A    between atoms: _285  and  _286
REMARK  116  A    between atoms: _285  and  _288
REMARK  117  A    between atoms: _288  and  _289
REMARK  118  A    between atoms: _289  and  _290
REMARK  119  A    between atoms: _292  and  _294
REMARK  120  A    between atoms: _294  and  _295
REMARK  121  A    between atoms: _294  and  _297
REMARK  122  A    between atoms: _297  and  _298
REMARK  123  A    between atoms: _301  and  _303
REMARK  124  A    between atoms: _303  and  _304
REMARK  125  A    between atoms: _303  and  _306
REMARK  126  A    between atoms: _306  and  _307
REMARK  127  A    between atoms: _307  and  _308
REMARK  128  A    between atoms: _308  and  _309
REMARK  129  A    between atoms: _318  and  _320
REMARK  130  A    between atoms: _320  and  _321
REMARK  131  A    between atoms: _320  and  _323
REMARK  132  A    between atoms: _323  and  _324
REMARK  133  A    between atoms: _326  and  _328
REMARK  134  A    between atoms: _328  and  _329
REMARK  135  A    between atoms: _328  and  _331
REMARK  136  A    between atoms: _331  and  _332
REMARK  137  A    between atoms: _337  and  _339
REMARK  138  A    between atoms: _339  and  _340
REMARK  139  A    between atoms: _339  and  _342
REMARK  140  A    between atoms: _342  and  _343
REMARK  141  A    between atoms: _343  and  _344
REMARK  142  A    between atoms: _349  and  _351
REMARK  143  A    between atoms: _351  and  _352
REMARK  144  A    between atoms: _351  and  _354
REMARK  145  A    between atoms: _354  and  _355
REMARK  146  A    between atoms: _357  and  _359
REMARK  147  A    between atoms: _359  and  _360
REMARK  148  A    between atoms: _359  and  _362
REMARK  149  A    between atoms: _362  and  _363
REMARK  150  A    between atoms: _369  and  _371
REMARK  151  A    between atoms: _371  and  _372
REMARK  152  A    between atoms: _371  and  _374
REMARK  153  A    between atoms: _374  and  _375
REMARK  154  A    between atoms: _377  and  _379
REMARK  155  A    between atoms: _379  and  _380
REMARK  156  A    between atoms: _379  and  _382
REMARK  157  A    between atoms: _382  and  _383
REMARK  158  A    between atoms: _393  and  _395
REMARK  159  A    between atoms: _395  and  _396
REMARK  160  A    between atoms: _395  and  _398
REMARK  161  A    between atoms: _398  and  _399
REMARK  162  A    between atoms: _402  and  _404
REMARK  163  A    between atoms: _404  and  _405
REMARK  164  A    between atoms: _404  and  _407
REMARK  165  A    between atoms: _409  and  _411
REMARK  166  A    between atoms: _411  and  _412
REMARK  167  A    between atoms: _411  and  _414
REMARK  168  A    between atoms: _414  and  _415
REMARK  169  A    between atoms: _420  and  _421
REMARK  170  A    between atoms: _423  and  _425
REMARK  171  A    between atoms: _425  and  _426
REMARK  172  A    between atoms: _425  and  _428
REMARK  173  A    between atoms: _428  and  _429
REMARK  174  A    between atoms: _429  and  _430
REMARK  175  A    between atoms: _430  and  _431
REMARK  176  A    between atoms: _431  and  _432
REMARK  177  A    between atoms: _436  and  _438
REMARK  178  A    between atoms: _438  and  _439
REMARK  179  A    between atoms: _438  and  _441
REMARK  180  A    between atoms: _441  and  _442
REMARK  181  A    between atoms: _447  and  _448
REMARK  182  A    between atoms: _450  and  _452
REMARK  183  A    between atoms: _452  and  _453
REMARK  184  A    between atoms: _452  and  _455
REMARK  185  A    between atoms: _455  and  _456
REMARK  186  A    between atoms: _459  and  _461
REMARK  187  A    between atoms: _461  and  _462
REMARK  188  A    between atoms: _461  and  _464
REMARK  189  A    between atoms: _464  and  _465
REMARK  190  A    between atoms: _468  and  _470
REMARK  191  A    between atoms: _470  and  _471
REMARK  192  A    between atoms: _470  and  _473
REMARK  193  A    between atoms: _476  and  _478
REMARK  194  A    between atoms: _478  and  _479
REMARK  195  A    between atoms: _478  and  _481
REMARK  196  A    between atoms: _481  and  _482
REMARK  197  A    between atoms: _484  and  _486
REMARK  198  A    between atoms: _486  and  _487
REMARK  199  A    between atoms: _490  and  _492
REMARK  200  A    between atoms: _492  and  _493
REMARK  201  A    between atoms: _495  and  _497
REMARK  202  A    between atoms: _497  and  _498
REMARK  203  A    between atoms: _497  and  _500
REMARK  204  A    between atoms: _500  and  _501
REMARK  205  A    between atoms: _506  and  _508
REMARK  206  A    between atoms: _508  and  _509
REMARK  207  A    between atoms: _508  and  _511
REMARK  208  A    between atoms: _511  and  _512
REMARK  209  A    between atoms: _515  and  _517
REMARK  210  A    between atoms: _517  and  _518
REMARK  211  A    between atoms: _517  and  _520
REMARK  212  A    between atoms: _520  and  _521
REMARK  213  A    between atoms: _524  and  _526
REMARK  214  A    between atoms: _526  and  _527
REMARK  215  A    between atoms: _526  and  _529
REMARK  216  A    between atoms: _529  and  _530
REMARK  217  A    between atoms: _533  and  _535
REMARK  218  A    between atoms: _535  and  _536
REMARK  219  A    between atoms: _535  and  _538
REMARK  220  A    between atoms: _538  and  _539
REMARK  221  A    between atoms: _545  and  _547
REMARK  222  A    between atoms: _547  and  _548
REMARK  223  A    between atoms: _547  and  _550
REMARK  224  A    between atoms: _550  and  _551
REMARK  225  A    between atoms: _551  and  _552
REMARK  226  A    between atoms: _557  and  _559
REMARK  227  A    between atoms: _559  and  _560
REMARK  228  A    between atoms: _559  and  _562
REMARK  229  A    between atoms: _562  and  _563
REMARK  230  A    between atoms: _566  and  _568
REMARK  231  A    between atoms: _568  and  _569
REMARK  232  A    between atoms: _568  and  _571
REMARK  233  A    between atoms: _571  and  _572
REMARK  234  A    between atoms: _572  and  _573
REMARK  235  A    between atoms: _576  and  _578
REMARK  236  A    between atoms: _578  and  _579
REMARK  237  A    between atoms: _578  and  _581
REMARK  238  A    between atoms: _581  and  _582
REMARK  239  A    between atoms: _587  and  _589
REMARK  240  A    between atoms: _589  and  _590
REMARK  241  A    between atoms: _589  and  _592
REMARK  242  A    between atoms: _592  and  _593
REMARK  243  A    between atoms: _595  and  _597
REMARK  244  A    between atoms: _597  and  _598
REMARK  245  A    between atoms: _597  and  _600
REMARK  246  A    between atoms: _600  and  _601
REMARK  247  A    between atoms: _601  and  _602
REMARK  248  A    between atoms: _607  and  _609
REMARK  249  A    between atoms: _609  and  _610
REMARK  250  A    between atoms: _609  and  _612
REMARK  251  A    between atoms: _612  and  _613
REMARK  252  A    between atoms: _618  and  _619
REMARK  253  A    between atoms: _621  and  _623
REMARK  254  A    between atoms: _623  and  _624
REMARK  255  A    between atoms: _623  and  _626
REMARK  256  A    between atoms: _626  and  _627
REMARK  257  A    between atoms: _627  and  _628
REMARK  258  A    between atoms: _628  and  _629
REMARK  259  A    between atoms: _638  and  _640
REMARK  260  A    between atoms: _640  and  _641
REMARK  261  A    between atoms: _640  and  _643
REMARK  262  A    between atoms: _643  and  _644
REMARK  263  A    between atoms: _647  and  _649
REMARK  264  A    between atoms: _649  and  _650
REMARK  265  A    between atoms: _649  and  _652
REMARK  266  A    between atoms: _652  and  _653
REMARK  267  A    between atoms: _655  and  _657
REMARK  268  A    between atoms: _657  and  _658
REMARK  269  A    between atoms: _657  and  _660
REMARK  270  A    between atoms: _660  and  _661
REMARK  271  A    between atoms: _666  and  _668
REMARK  272  A    between atoms: _668  and  _669
REMARK  273  A    between atoms: _668  and  _671
REMARK  274  A    between atoms: _671  and  _672
REMARK  275  A    between atoms: _672  and  _673
REMARK  276  A    between atoms: _673  and  _674
REMARK  277  A    between atoms: _674  and  _675
REMARK  278  A    between atoms: _679  and  _681
REMARK  279  A    between atoms: _681  and  _682
REMARK  280  A    between atoms: _681  and  _684
REMARK  281  A    between atoms: _684  and  _685
REMARK  282  A    between atoms: _688  and  _690
REMARK  283  A    between atoms: _690  and  _691
REMARK  284  A    between atoms: _690  and  _693
REMARK  285  A    between atoms: _693  and  _694
REMARK  286  A    between atoms: _697  and  _699
REMARK  287  A    between atoms: _699  and  _700
REMARK  288  A    between atoms: _699  and  _702
REMARK  289  A    between atoms: _705  and  _707
REMARK  290  A    between atoms: _707  and  _708
REMARK  291  A    between atoms: _707  and  _710
REMARK  292  A    between atoms: _710  and  _711
REMARK                            x       y       z     vdW  Elec       q    Type
REMARK                         _______ _______ _______ _____ _____    ______ ____
ROOT
ATOM      1  CA  LEU A   1      54.070   1.897  -9.851  0.00  0.00    +0.133 C 
ENDROOT
BRANCH   1   2
ATOM      2  N   LEU A   1      53.675   1.381 -11.166  0.00  0.00    -0.239 NA
ATOM      3  H   LEU A   1      54.402   1.215 -11.891  0.00  0.00    +0.142 HD
ENDBRANCH   1   2
BRANCH   1   4
ATOM      4  C   LEU A   1      53.465   3.275  -9.613  0.00  0.00    +0.224 C 
ATOM      5  O   LEU A   1      52.869   3.534  -8.562  0.00  0.00    -0.287 OA
ENDBRANCH   1   4
BRANCH   1   6
ATOM      6  CB  LEU A   1      55.601   1.915  -9.670  0.00  0.00    +0.025 C 
BRANCH   6   7
ATOM      7  CG  LEU A   1      56.143   2.603  -8.382  0.00  0.00    +0.002 C 
ATOM      8  CD2 LEU A   1      55.582   1.966  -7.104  0.00  0.00    +0.000 C 
ATOM      9  CD1 LEU A   1      57.696   2.611  -8.361  0.00  0.00    +0.000 C 
ENDBRANCH   6   7
ENDBRANCH   1   6
TORSDOF 4
REMARK  Name = ../refined-set-2016/1rjk/1rjk_pocket.pdb
REMARK  292 active torsions:
REMARK  status: ('A' for Active; 'I' for Inactive)
REMARK    1  A    between atoms: _1  and  _3
REMARK    2  A    between atoms: _3  and  _4
REMARK    3  A    between atoms: _3  and  _6
REMARK    4  A    between atoms: _6  and  _7
REMARK    5  A    between atoms: _10  and  _12
REMARK    6  A    between atoms: _12  and  _13
REMARK    7  A    between atoms: _12  and  _15
REMARK    8  A    between atoms: _15  and  _16
REMARK    9  A    between atoms: _21  and  _22
REMARK   10  A    between atoms: _24  and  _26
REMARK   11  A    between atoms: _26  and  _27
REMARK   12  A    between atoms: _26  and  _29
REMARK   13  A    between atoms: _29  and  _30
REMARK   14  A    between atoms: _34  and  _35
REMARK   15  A    between atoms: _40  and  _42
REMARK   16  A    between atoms: _42  and  _43
REMARK   17  A    between atoms: _42  and  _45
REMARK   18  A    between atoms: _45  and  _46
REMARK   19  A    between atoms: _51  and  _52
REMARK   20  A    between atoms: _54  and  _56
REMARK   21  A    between atoms: _56  and  _57
REMARK   22  A    between atoms: _56  and  _59
REMARK   23  A    between atoms: _59  and  _60
REMARK   24  A    between atoms: _66  and  _68
REMARK   25  A    between atoms: _68  and  _69
REMARK   26  A    between atoms: _68  and  _71
REMARK   27  A    between atoms: _71  and  _72
REMARK   28  A    between atoms: _78  and  _80
REMARK   29  A    between atoms: _80  and  _81
REMARK   30  A    between atoms: _80  and  _83
REMARK   31  A    between atoms: _83  and  _84
REMARK   32  A    between atoms: _84  and  _85
REMARK   33  A    between atoms: _85  and  _86
REMARK   34  A    between atoms: _95  and  _97
REMARK   35  A    between atoms: _97  and  _98
REMARK   36  A    between atoms: _97  and  _100
REMARK   37  A    between atoms: _100  and  _101
REMARK   38  A    between atoms: _104  and  _106
REMARK   39  A    between atoms: _106  and  _107
REMARK   40  A    between atoms: _106  and  _109
REMARK   41  A    between atoms: _109  and  _110
REMARK   42  A    between atoms: _110  and  _111
REMARK   43  A    between atoms: _113  and  _115
REMARK   44  A    between atoms: _115  and  _116
REMARK   45  A    between atoms: _115  and  _118
REMARK   46  A    between atoms: _118  and  _119
REMARK   47  A    between atoms: _123  and  _124
REMARK   48  A    between atoms: _129  and  _131
REMARK   49  A    between atoms: _131  and  _132
REMARK   50  A    between atoms: _131  and  _134
REMARK   51  A    between atoms: _134  and  _135
REMARK   52  A    between atoms: _140  and  _142
REMARK   53  A    between atoms: _142  and  _143
REMARK   54  A    between atoms: _142  and  _145
REMARK   55  A    between atoms: _145  and  _146
REMARK   56  A    between atoms: _149  and  _151
REMARK   57  A    between atoms: _151  and  _152
REMARK   58  A    between atoms: _155  and  _157
REMARK   59  A    between atoms: _157  and  _158
REMARK   60  A    between atoms: _157  and  _160
REMARK   61  A    between atoms: _160  and  _161
REMARK   62  A    between atoms: _164  and  _166
REMARK   63  A    between atoms: _166  and  _167
REMARK   64  A    between atoms: _166  and  _169
REMARK   65  A    between atoms: _169  and  _170
REMARK   66  A    between atoms: _173  and  _175
REMARK   67  A    between atoms: _175  and  _176
REMARK   68  A    between atoms: _175  and  _178
REMARK   69  A    between atoms: _181  and  _183
REMARK   70  A    between atoms: _183  and  _184
REMARK   71  A    between atoms: _183  and  _186
REMARK   72  A    between atoms: _186  and  _187
REMARK   73  A    between atoms: _189  and  _191
REMARK   74  A    between atoms: _191  and  _192
REMARK   75  A    between atoms: _191  and  _194
REMARK   76  A    between atoms: _194  and  _195
REMARK   77  A    between atoms: _200  and  _201
REMARK   78  A    between atoms: _203  and  _205
REMARK   79  A    between atoms: _205  and  _206
REMARK   80  A    between atoms: _205  and  _208
REMARK   81  A    between atoms: _208  and  _209
REMARK   82  A    between atoms: _211  and  _213
REMARK   83  A    between atoms: _213  and  _214
REMARK   84  A    between atoms: _213  and  _216
REMARK   85  A    between atoms: _216  and  _217
REMARK   86  A    between atoms: _220  and  _222
REMARK   87  A    between atoms: _222  and  _223
REMARK   88  A    between atoms: _222  and  _225
REMARK   89  A    between atoms: _225  and  _226
REMARK   90  A    between atoms: _226  and  _227
REMARK   91  A    between atoms: _227  and  _228
REMARK   92  A    between atoms: _228  and  _229
REMARK   93  A    between atoms: _233  and  _235
REMARK   94  A    between atoms: _235  and  _236
REMARK   95  A    between atoms: _235  and  _238
REMARK   96  A    between atoms: _241  and  _243
REMARK   97  A    between atoms: _243  and  _244
REMARK   98  A    between atoms: _247  and  _249
REMARK   99  A    between atoms: _249  and  _250
REMARK  100  A    between atoms: _249  and  _252
REMARK  101  A    between atoms: _252  and  _253
REMARK  102  A    between atoms: _256  and  _258
REMARK  103  A    between atoms: _258  and  _259
REMARK  104  A    between atoms: _258  and  _261
REMARK  105  A    between atoms: _261  and  _262
REMARK  106  A    between atoms: _262  and  _263
REMARK  107  A    between atoms: _266  and  _268
REMARK  108  A    between atoms: _268  and  _269
REMARK  109  A    between atoms: _268  and  _271
REMARK  110  A    between atoms: _274  and  _276
REMARK  111  A    between atoms: _276  and  _277
REMARK  112  A    between atoms: _276  and  _279
REMARK  113  A    between atoms: _279  and  _280
REMARK  114  A    between atoms: _283  and  _285
REMARK  115  A    between atoms: _285  and  _286
REMARK  116  A    between atoms: _285  and  _288
REMARK  117  A    between atoms: _288  and  _289
REMARK  118  A    between atoms: _289  and  _290
REMARK  119  A    between atoms: _292  and  _294
REMARK  120  A    between atoms: _294  and  _295
REMARK  121  A    between atoms: _294  and  _297
REMARK  122  A    between atoms: _297  and  _298
REMARK  123  A    between atoms: _301  and  _303
REMARK  124  A    between atoms: _303  and  _304
REMARK  125  A    between atoms: _303  and  _306
REMARK  126  A    between atoms: _306  and  _307
REMARK  127  A    between atoms: _307  and  _308
REMARK  128  A    between atoms: _308  and  _309
REMARK  129  A    between atoms: _318  and  _320
REMARK  130  A    between atoms: _320  and  _321
REMARK  131  A    between atoms: _320  and  _323
REMARK  132  A    between atoms: _323  and  _324
REMARK  133  A    between atoms: _326  and  _328
REMARK  134  A    between atoms: _328  and  _329
REMARK  135  A    between atoms: _328  and  _331
REMARK  136  A    between atoms: _331  and  _332
REMARK  137  A    between atoms: _337  and  _339
REMARK  138  A    between atoms: _339  and  _340
REMARK  139  A    between atoms: _339  and  _342
REMARK  140  A    between atoms: _342  and  _343
REMARK  141  A    between atoms: _343  and  _344
REMARK  142  A    between atoms: _349  and  _351
REMARK  143  A    between atoms: _351  and  _352
REMARK  144  A    between atoms: _351  and  _354
REMARK  145  A    between atoms: _354  and  _355
REMARK  146  A    between atoms: _357  and  _359
REMARK  147  A    between atoms: _359  and  _360
REMARK  148  A    between atoms: _359  and  _362
REMARK  149  A    between atoms: _362  and  _363
REMARK  150  A    between atoms: _369  and  _371
REMARK  151  A    between atoms: _371  and  _372
REMARK  152  A    between atoms: _371  and  _374
REMARK  153  A    between atoms: _374  and  _375
REMARK  154  A    between atoms: _377  and  _379
REMARK  155  A    between atoms: _379  and  _380
REMARK  156  A    between atoms: _379  and  _382
REMARK  157  A    between atoms: _382  and  _383
REMARK  158  A    between atoms: _393  and  _395
REMARK  159  A    between atoms: _395  and  _396
REMARK  160  A    between atoms: _395  and  _398
REMARK  161  A    between atoms: _398  and  _399
REMARK  162  A    between atoms: _402  and  _404
REMARK  163  A    between atoms: _404  and  _405
REMARK  164  A    between atoms: _404  and  _407
REMARK  165  A    between atoms: _409  and  _411
REMARK  166  A    between atoms: _411  and  _412
REMARK  167  A    between atoms: _411  and  _414
REMARK  168  A    between atoms: _414  and  _415
REMARK  169  A    between atoms: _420  and  _421
REMARK  170  A    between atoms: _423  and  _425
REMARK  171  A    between atoms: _425  and  _426
REMARK  172  A    between atoms: _425  and  _428
REMARK  173  A    between atoms: _428  and  _429
REMARK  174  A    between atoms: _429  and  _430
REMARK  175  A    between atoms: _430  and  _431
REMARK  176  A    between atoms: _431  and  _432
REMARK  177  A    between atoms: _436  and  _438
REMARK  178  A    between atoms: _438  and  _439
REMARK  179  A    between atoms: _438  and  _441
REMARK  180  A    between atoms: _441  and  _442
REMARK  181  A    between atoms: _447  and  _448
REMARK  182  A    between atoms: _450  and  _452
REMARK  183  A    between atoms: _452  and  _453
REMARK  184  A    between atoms: _452  and  _455
REMARK  185  A    between atoms: _455  and  _456
REMARK  186  A    between atoms: _459  and  _461
REMARK  187  A    between atoms: _461  and  _462
REMARK  188  A    between atoms: _461  and  _464
REMARK  189  A    between atoms: _464  and  _465
REMARK  190  A    between atoms: _468  and  _470
REMARK  191  A    between atoms: _470  and  _471
REMARK  192  A    between atoms: _470  and  _473
REMARK  193  A    between atoms: _476  and  _478
REMARK  194  A    between atoms: _478  and  _479
REMARK  195  A    between atoms: _478  and  _481
REMARK  196  A    between atoms: _481  and  _482
REMARK  197  A    between atoms: _484  and  _486
REMARK  198  A    between atoms: _486  and  _487
REMARK  199  A    between atoms: _490  and  _492
REMARK  200  A    between atoms: _492  and  _493
REMARK  201  A    between atoms: _495  and  _497
REMARK  202  A    between atoms: _497  and  _498
REMARK  203  A    between atoms: _497  and  _500
REMARK  204  A    between atoms: _500  and  _501
REMARK  205  A    between atoms: _506  and  _508
REMARK  206  A    between atoms: _508  and  _509
REMARK  207  A    between atoms: _508  and  _511
REMARK  208  A    between atoms: _511  and  _512
REMARK  209  A    between atoms: _515  and  _517
REMARK  210  A    between atoms: _517  and  _518
REMARK  211  A    between atoms: _517  and  _520
REMARK  212  A    between atoms: _520  and  _521
REMARK  213  A    between atoms: _524  and  _526
REMARK  214  A    between atoms: _526  and  _527
REMARK  215  A    between atoms: _526  and  _529
REMARK  216  A    between atoms: _529  and  _530
REMARK  217  A    between atoms: _533  and  _535
REMARK  218  A    between atoms: _535  and  _536
REMARK  219  A    between atoms: _535  and  _538
REMARK  220  A    between atoms: _538  and  _539
REMARK  221  A    between atoms: _545  and  _547
REMARK  222  A    between atoms: _547  and  _548
REMARK  223  A    between atoms: _547  and  _550
REMARK  224  A    between atoms: _550  and  _551
REMARK  225  A    between atoms: _551  and  _552
REMARK  226  A    between atoms: _557  and  _559
REMARK  227  A    between atoms: _559  and  _560
REMARK  228  A    between atoms: _559  and  _562
REMARK  229  A    between atoms: _562  and  _563
REMARK  230  A    between atoms: _566  and  _568
REMARK  231  A    between atoms: _568  and  _569
REMARK  232  A    between atoms: _568  and  _571
REMARK  233  A    between atoms: _571  and  _572
REMARK  234  A    between atoms: _572  and  _573
REMARK  235  A    between atoms: _576  and  _578
REMARK  236  A    between atoms: _578  and  _579
REMARK  237  A    between atoms: _578  and  _581
REMARK  238  A    between atoms: _581  and  _582
REMARK  239  A    between atoms: _587  and  _589
REMARK  240  A    between atoms: _589  and  _590
REMARK  241  A    between atoms: _589  and  _592
REMARK  242  A    between atoms: _592  and  _593
REMARK  243  A    between atoms: _595  and  _597
REMARK  244  A    between atoms: _597  and  _598
REMARK  245  A    between atoms: _597  and  _600
REMARK  246  A    between atoms: _600  and  _601
REMARK  247  A    between atoms: _601  and  _602
REMARK  248  A    between atoms: _607  and  _609
REMARK  249  A    between atoms: _609  and  _610
REMARK  250  A    between atoms: _609  and  _612
REMARK  251  A    between atoms: _612  and  _613
REMARK  252  A    between atoms: _618  and  _619
REMARK  253  A    between atoms: _621  and  _623
REMARK  254  A    between atoms: _623  and  _624
REMARK  255  A    between atoms: _623  and  _626
REMARK  256  A    between atoms: _626  and  _627
REMARK  257  A    between atoms: _627  and  _628
REMARK  258  A    between atoms: _628  and  _629
REMARK  259  A    between atoms: _638  and  _640
REMARK  260  A    between atoms: _640  and  _641
REMARK  261  A    between atoms: _640  and  _643
REMARK  262  A    between atoms: _643  and  _644
REMARK  263  A    between atoms: _647  and  _649
REMARK  264  A    between atoms: _649  and  _650
REMARK  265  A    between atoms: _649  and  _652
REMARK  266  A    between atoms: _652  and  _653
REMARK  267  A    between atoms: _655  and  _657
REMARK  268  A    between atoms: _657  and  _658
REMARK  269  A    between atoms: _657  and  _660
REMARK  270  A    between atoms: _660  and  _661
REMARK  271  A    between atoms: _666  and  _668
REMARK  272  A    between atoms: _668  and  _669
REMARK  273  A    between atoms: _668  and  _671
REMARK  274  A    between atoms: _671  and  _672
REMARK  275  A    between atoms: _672  and  _673
REMARK  276  A    between atoms: _673  and  _674
REMARK  277  A    between atoms: _674  and  _675
REMARK  278  A    between atoms: _679  and  _681
REMARK  279  A    between atoms: _681  and  _682
REMARK  280  A    between atoms: _681  and  _684
REMARK  281  A    between atoms: _684  and  _685
REMARK  282  A    between atoms: _688  and  _690
REMARK  283  A    between atoms: _690  and  _691
REMARK  284  A    between atoms: _690  and  _693
REMARK  285  A    between atoms: _693  and  _694
REMARK  286  A    between atoms: _697  and  _699
REMARK  287  A    between atoms: _699  and  _700
REMARK  288  A    between atoms: _699  and  _702
REMARK  289  A    between atoms: _705  and  _707
REMARK  290  A    between atoms: _707  and  _708
REMARK  291  A    between atoms: _707  and  _710
REMARK  292  A    between atoms: _710  and  _711
REMARK                            x       y       z     vdW  Elec       q    Type
REMARK                         _______ _______ _______ _____ _____    ______ ____
ROOT
ATOM      1  C   PHE A   1      49.537   3.715  -6.927  0.00  0.00    +0.239 C 
ATOM      2  O   PHE A   1      48.590   3.884  -6.137  0.00  0.00    -0.274 OA
ATOM      3  N   GLN A   2      50.582   4.537  -7.032  0.00  0.00    -0.298 N 
ATOM      4  H   GLN A   2      51.274   4.378  -7.792  0.00  0.00    +0.150 HD
ENDROOT
BRANCH   1   5
ATOM      5  CA  PHE A   1      49.548   2.523  -7.863  0.00  0.00    +0.149 C 
BRANCH   5   6
ATOM      6  N   PHE A   1      49.793   2.963  -9.240  0.00  0.00    -0.238 NA
ATOM      7  H   PHE A   1      50.605   2.576  -9.761  0.00  0.00    +0.142 HD
ENDBRANCH   5   6
BRANCH   5   8
ATOM      8  CB  PHE A   1      50.627   1.517  -7.420  0.00  0.00    +0.053 C 
BRANCH   8   9
ATOM      9  CG  PHE A   1      50.542   1.127  -5.967  0.00  0.00    -0.020 A 
ATOM     10  CD2 PHE A   1      51.362   1.754  -5.023  0.00  0.00    -0.004 A 
ATOM     11  CE2 PHE A   1      51.289   1.418  -3.688  0.00  0.00    -0.000 A 
ATOM     12  CZ  PHE A   1      50.391   0.438  -3.277  0.00  0.00    -0.000 A 
ATOM     13  CE1 PHE A   1      49.564  -0.200  -4.205  0.00  0.00    -0.000 A 
ATOM     14  CD1 PHE A   1      49.636   0.153  -5.545  0.00  0.00    -0.004 A 
ENDBRANCH   8   9
ENDBRANCH   5   8
ENDBRANCH   1   5
BRANCH   3  15
ATOM     15  CA  GLN A   2      50.786   5.661  -6.106  0.00  0.00    +0.137 C 
BRANCH  15  16
ATOM     16  C   GLN A   2      49.625   6.639  -6.220  0.00  0.00    +0.227 C 
ATOM     17  O   GLN A   2      49.144   7.142  -5.225  0.00  0.00    -0.286 OA
ENDBRANCH  15  16
BRANCH  15  18
ATOM     18  CB  GLN A   2      52.109   6.362  -6.351  0.00  0.00    +0.037 C 
BRANCH  18  19
ATOM     19  CG  GLN A   2      53.367   5.502  -6.086  0.00  0.00    +0.087 C 
BRANCH  19  20
ATOM     20  CD  GLN A   2      53.481   5.124  -4.610  0.00  0.00    +0.219 C 
ATOM     21  OE1 GLN A   2      53.021   5.875  -3.733  0.00  0.00    -0.275 OA
ATOM     22  NE2 GLN A   2      54.088   3.981  -4.336  0.00  0.00    -0.329 N 
ATOM     23 HE21 GLN A   2      54.198   3.674  -3.348  0.00  0.00    +0.145 HD
ATOM     24 HE22 GLN A   2      54.455   3.389  -5.108  0.00  0.00    +0.145 HD
ENDBRANCH  19  20
ENDBRANCH  18  19
ENDBRANCH  15  18
ENDBRANCH   3  15
TORSDOF 9
REMARK  Name = ../refined-set-2016/1rjk/1rjk_pocket.pdb
REMARK  292 active torsions:
REMARK  status: ('A' for Active; 'I' for Inactive)
REMARK    1  A    between atoms: _1  and  _3
REMARK    2  A    between atoms: _3  and  _4
REMARK    3  A    between atoms: _3  and  _6
REMARK    4  A    between atoms: _6  and  _7
REMARK    5  A    between atoms: _10  and  _12
REMARK    6  A    between atoms: _12  and  _13
REMARK    7  A    between atoms: _12  and  _15
REMARK    8  A    between atoms: _15  and  _16
REMARK    9  A    between atoms: _21  and  _22
REMARK   10  A    between atoms: _24  and  _26
REMARK   11  A    between atoms: _26  and  _27
REMARK   12  A    between atoms: _26  and  _29
REMARK   13  A    between atoms: _29  and  _30
REMARK   14  A    between atoms: _34  and  _35
REMARK   15  A    between atoms: _40  and  _42
REMARK   16  A    between atoms: _42  and  _43
REMARK   17  A    between atoms: _42  and  _45
REMARK   18  A    between atoms: _45  and  _46
REMARK   19  A    between atoms: _51  and  _52
REMARK   20  A    between atoms: _54  and  _56
REMARK   21  A    between atoms: _56  and  _57
REMARK   22  A    between atoms: _56  and  _59
REMARK   23  A    between atoms: _59  and  _60
REMARK   24  A    between atoms: _66  and  _68
REMARK   25  A    between atoms: _68  and  _69
REMARK   26  A    between atoms: _68  and  _71
REMARK   27  A    between atoms: _71  and  _72
REMARK   28  A    between atoms: _78  and  _80
REMARK   29  A    between atoms: _80  and  _81
REMARK   30  A    between atoms: _80  and  _83
REMARK   31  A    between atoms: _83  and  _84
REMARK   32  A    between atoms: _84  and  _85
REMARK   33  A    between atoms: _85  and  _86
REMARK   34  A    between atoms: _95  and  _97
REMARK   35  A    between atoms: _97  and  _98
REMARK   36  A    between atoms: _97  and  _100
REMARK   37  A    between atoms: _100  and  _101
REMARK   38  A    between atoms: _104  and  _106
REMARK   39  A    between atoms: _106  and  _107
REMARK   40  A    between atoms: _106  and  _109
REMARK   41  A    between atoms: _109  and  _110
REMARK   42  A    between atoms: _110  and  _111
REMARK   43  A    between atoms: _113  and  _115
REMARK   44  A    between atoms: _115  and  _116
REMARK   45  A    between atoms: _115  and  _118
REMARK   46  A    between atoms: _118  and  _119
REMARK   47  A    between atoms: _123  and  _124
REMARK   48  A    between atoms: _129  and  _131
REMARK   49  A    between atoms: _131  and  _132
REMARK   50  A    between atoms: _131  and  _134
REMARK   51  A    between atoms: _134  and  _135
REMARK   52  A    between atoms: _140  and  _142
REMARK   53  A    between atoms: _142  and  _143
REMARK   54  A    between atoms: _142  and  _145
REMARK   55  A    between atoms: _145  and  _146
REMARK   56  A    between atoms: _149  and  _151
REMARK   57  A    between atoms: _151  and  _152
REMARK   58  A    between atoms: _155  and  _157
REMARK   59  A    between atoms: _157  and  _158
REMARK   60  A    between atoms: _157  and  _160
REMARK   61  A    between atoms: _160  and  _161
REMARK   62  A    between atoms: _164  and  _166
REMARK   63  A    between atoms: _166  and  _167
REMARK   64  A    between atoms: _166  and  _169
REMARK   65  A    between atoms: _169  and  _170
REMARK   66  A    between atoms: _173  and  _175
REMARK   67  A    between atoms: _175  and  _176
REMARK   68  A    between atoms: _175  and  _178
REMARK   69  A    between atoms: _181  and  _183
REMARK   70  A    between atoms: _183  and  _184
REMARK   71  A    between atoms: _183  and  _186
REMARK   72  A    between atoms: _186  and  _187
REMARK   73  A    between atoms: _189  and  _191
REMARK   74  A    between atoms: _191  and  _192
REMARK   75  A    between atoms: _191  and  _194
REMARK   76  A    between atoms: _194  and  _195
REMARK   77  A    between atoms: _200  and  _201
REMARK   78  A    between atoms: _203  and  _205
REMARK   79  A    between atoms: _205  and  _206
REMARK   80  A    between atoms: _205  and  _208
REMARK   81  A    between atoms: _208  and  _209
REMARK   82  A    between atoms: _211  and  _213
REMARK   83  A    between atoms: _213  and  _214
REMARK   84  A    between atoms: _213  and  _216
REMARK   85  A    between atoms: _216  and  _217
REMARK   86  A    between atoms: _220  and  _222
REMARK   87  A    between atoms: _222  and  _223
REMARK   88  A    between atoms: _222  and  _225
REMARK   89  A    between atoms: _225  and  _226
REMARK   90  A    between atoms: _226  and  _227
REMARK   91  A    between atoms: _227  and  _228
REMARK   92  A    between atoms: _228  and  _229
REMARK   93  A    between atoms: _233  and  _235
REMARK   94  A    between atoms: _235  and  _236
REMARK   95  A    between atoms: _235  and  _238
REMARK   96  A    between atoms: _241  and  _243
REMARK   97  A    between atoms: _243  and  _244
REMARK   98  A    between atoms: _247  and  _249
REMARK   99  A    between atoms: _249  and  _250
REMARK  100  A    between atoms: _249  and  _252
REMARK  101  A    between atoms: _252  and  _253
REMARK  102  A    between atoms: _256  and  _258
REMARK  103  A    between atoms: _258  and  _259
REMARK  104  A    between atoms: _258  and  _261
REMARK  105  A    between atoms: _261  and  _262
REMARK  106  A    between atoms: _262  and  _263
REMARK  107  A    between atoms: _266  and  _268
REMARK  108  A    between atoms: _268  and  _269
REMARK  109  A    between atoms: _268  and  _271
REMARK  110  A    between atoms: _274  and  _276
REMARK  111  A    between atoms: _276  and  _277
REMARK  112  A    between atoms: _276  and  _279
REMARK  113  A    between atoms: _279  and  _280
REMARK  114  A    between atoms: _283  and  _285
REMARK  115  A    between atoms: _285  and  _286
REMARK  116  A    between atoms: _285  and  _288
REMARK  117  A    between atoms: _288  and  _289
REMARK  118  A    between atoms: _289  and  _290
REMARK  119  A    between atoms: _292  and  _294
REMARK  120  A    between atoms: _294  and  _295
REMARK  121  A    between atoms: _294  and  _297
REMARK  122  A    between atoms: _297  and  _298
REMARK  123  A    between atoms: _301  and  _303
REMARK  124  A    between atoms: _303  and  _304
REMARK  125  A    between atoms: _303  and  _306
REMARK  126  A    between atoms: _306  and  _307
REMARK  127  A    between atoms: _307  and  _308
REMARK  128  A    between atoms: _308  and  _309
REMARK  129  A    between atoms: _318  and  _320
REMARK  130  A    between atoms: _320  and  _321
REMARK  131  A    between atoms: _320  and  _323
REMARK  132  A    between atoms: _323  and  _324
REMARK  133  A    between atoms: _326  and  _328
REMARK  134  A    between atoms: _328  and  _329
REMARK  135  A    between atoms: _328  and  _331
REMARK  136  A    between atoms: _331  and  _332
REMARK  137  A    between atoms: _337  and  _339
REMARK  138  A    between atoms: _339  and  _340
REMARK  139  A    between atoms: _339  and  _342
REMARK  140  A    between atoms: _342  and  _343
REMARK  141  A    between atoms: _343  and  _344
REMARK  142  A    between atoms: _349  and  _351
REMARK  143  A    between atoms: _351  and  _352
REMARK  144  A    between atoms: _351  and  _354
REMARK  145  A    between atoms: _354  and  _355
REMARK  146  A    between atoms: _357  and  _359
REMARK  147  A    between atoms: _359  and  _360
REMARK  148  A    between atoms: _359  and  _362
REMARK  149  A    between atoms: _362  and  _363
REMARK  150  A    between atoms: _369  and  _371
REMARK  151  A    between atoms: _371  and  _372
REMARK  152  A    between atoms: _371  and  _374
REMARK  153  A    between atoms: _374  and  _375
REMARK  154  A    between atoms: _377  and  _379
REMARK  155  A    between atoms: _379  and  _380
REMARK  156  A    between atoms: _379  and  _382
REMARK  157  A    between atoms: _382  and  _383
REMARK  158  A    between atoms: _393  and  _395
REMARK  159  A    between atoms: _395  and  _396
REMARK  160  A    between atoms: _395  and  _398
REMARK  161  A    between atoms: _398  and  _399
REMARK  162  A    between atoms: _402  and  _404
REMARK  163  A    between atoms: _404  and  _405
REMARK  164  A    between atoms: _404  and  _407
REMARK  165  A    between atoms: _409  and  _411
REMARK  166  A    between atoms: _411  and  _412
REMARK  167  A    between atoms: _411  and  _414
REMARK  168  A    between atoms: _414  and  _415
REMARK  169  A    between atoms: _420  and  _421
REMARK  170  A    between atoms: _423  and  _425
REMARK  171  A    between atoms: _425  and  _426
REMARK  172  A    between atoms: _425  and  _428
REMARK  173  A    between atoms: _428  and  _429
REMARK  174  A    between atoms: _429  and  _430
REMARK  175  A    between atoms: _430  and  _431
REMARK  176  A    between atoms: _431  and  _432
REMARK  177  A    between atoms: _436  and  _438
REMARK  178  A    between atoms: _438  and  _439
REMARK  179  A    between atoms: _438  and  _441
REMARK  180  A    between atoms: _441  and  _442
REMARK  181  A    between atoms: _447  and  _448
REMARK  182  A    between atoms: _450  and  _452
REMARK  183  A    between atoms: _452  and  _453
REMARK  184  A    between atoms: _452  and  _455
REMARK  185  A    between atoms: _455  and  _456
REMARK  186  A    between atoms: _459  and  _461
REMARK  187  A    between atoms: _461  and  _462
REMARK  188  A    between atoms: _461  and  _464
REMARK  189  A    between atoms: _464  and  _465
REMARK  190  A    between atoms: _468  and  _470
REMARK  191  A    between atoms: _470  and  _471
REMARK  192  A    between atoms: _470  and  _473
REMARK  193  A    between atoms: _476  and  _478
REMARK  194  A    between atoms: _478  and  _479
REMARK  195  A    between atoms: _478  and  _481
REMARK  196  A    between atoms: _481  and  _482
REMARK  197  A    between atoms: _484  and  _486
REMARK  198  A    between atoms: _486  and  _487
REMARK  199  A    between atoms: _490  and  _492
REMARK  200  A    between atoms: _492  and  _493
REMARK  201  A    between atoms: _495  and  _497
REMARK  202  A    between atoms: _497  and  _498
REMARK  203  A    between atoms: _497  and  _500
REMARK  204  A    between atoms: _500  and  _501
REMARK  205  A    between atoms: _506  and  _508
REMARK  206  A    between atoms: _508  and  _509
REMARK  207  A    between atoms: _508  and  _511
REMARK  208  A    between atoms: _511  and  _512
REMARK  209  A    between atoms: _515  and  _517
REMARK  210  A    between atoms: _517  and  _518
REMARK  211  A    between atoms: _517  and  _520
REMARK  212  A    between atoms: _520  and  _521
REMARK  213  A    between atoms: _524  and  _526
REMARK  214  A    between atoms: _526  and  _527
REMARK  215  A    between atoms: _526  and  _529
REMARK  216  A    between atoms: _529  and  _530
REMARK  217  A    between atoms: _533  and  _535
REMARK  218  A    between atoms: _535  and  _536
REMARK  219  A    between atoms: _535  and  _538
REMARK  220  A    between atoms: _538  and  _539
REMARK  221  A    between atoms: _545  and  _547
REMARK  222  A    between atoms: _547  and  _548
REMARK  223  A    between atoms: _547  and  _550
REMARK  224  A    between atoms: _550  and  _551
REMARK  225  A    between atoms: _551  and  _552
REMARK  226  A    between atoms: _557  and  _559
REMARK  227  A    between atoms: _559  and  _560
REMARK  228  A    between atoms: _559  and  _562
REMARK  229  A    between atoms: _562  and  _563
REMARK  230  A    between atoms: _566  and  _568
REMARK  231  A    between atoms: _568  and  _569
REMARK  232  A    between atoms: _568  and  _571
REMARK  233  A    between atoms: _571  and  _572
REMARK  234  A    between atoms: _572  and  _573
REMARK  235  A    between atoms: _576  and  _578
REMARK  236  A    between atoms: _578  and  _579
REMARK  237  A    between atoms: _578  and  _581
REMARK  238  A    between atoms: _581  and  _582
REMARK  239  A    between atoms: _587  and  _589
REMARK  240  A    between atoms: _589  and  _590
REMARK  241  A    between atoms: _589  and  _592
REMARK  242  A    between atoms: _592  and  _593
REMARK  243  A    between atoms: _595  and  _597
REMARK  244  A    between atoms: _597  and  _598
REMARK  245  A    between atoms: _597  and  _600
REMARK  246  A    between atoms: _600  and  _601
REMARK  247  A    between atoms: _601  and  _602
REMARK  248  A    between atoms: _607  and  _609
REMARK  249  A    between atoms: _609  and  _610
REMARK  250  A    between atoms: _609  and  _612
REMARK  251  A    between atoms: _612  and  _613
REMARK  252  A    between atoms: _618  and  _619
REMARK  253  A    between atoms: _621  and  _623
REMARK  254  A    between atoms: _623  and  _624
REMARK  255  A    between atoms: _623  and  _626
REMARK  256  A    between atoms: _626  and  _627
REMARK  257  A    between atoms: _627  and  _628
REMARK  258  A    between atoms: _628  and  _629
REMARK  259  A    between atoms: _638  and  _640
REMARK  260  A    between atoms: _640  and  _641
REMARK  261  A    between atoms: _640  and  _643
REMARK  262  A    between atoms: _643  and  _644
REMARK  263  A    between atoms: _647  and  _649
REMARK  264  A    between atoms: _649  and  _650
REMARK  265  A    between atoms: _649  and  _652
REMARK  266  A    between atoms: _652  and  _653
REMARK  267  A    between atoms: _655  and  _657
REMARK  268  A    between atoms: _657  and  _658
REMARK  269  A    between atoms: _657  and  _660
REMARK  270  A    between atoms: _660  and  _661
REMARK  271  A    between atoms: _666  and  _668
REMARK  272  A    between atoms: _668  and  _669
REMARK  273  A    between atoms: _668  and  _671
REMARK  274  A    between atoms: _671  and  _672
REMARK  275  A    between atoms: _672  and  _673
REMARK  276  A    between atoms: _673  and  _674
REMARK  277  A    between atoms: _674  and  _675
REMARK  278  A    between atoms: _679  and  _681
REMARK  279  A    between atoms: _681  and  _682
REMARK  280  A    between atoms: _681  and  _684
REMARK  281  A    between atoms: _684  and  _685
REMARK  282  A    between atoms: _688  and  _690
REMARK  283  A    between atoms: _690  and  _691
REMARK  284  A    between atoms: _690  and  _693
REMARK  285  A    between atoms: _693  and  _694
REMARK  286  A    between atoms: _697  and  _699
REMARK  287  A    between atoms: _699  and  _700
REMARK  288  A    between atoms: _699  and  _702
REMARK  289  A    between atoms: _705  and  _707
REMARK  290  A    between atoms: _707  and  _708
REMARK  291  A    between atoms: _707  and  _710
REMARK  292  A    between atoms: _710  and  _711
REMARK                            x       y       z     vdW  Elec       q    Type
REMARK                         _______ _______ _______ _____ _____    ______ ____
ROOT
ATOM      1  CA  LEU A   1      54.533  -4.807  -8.545  0.00  0.00    +0.133 C 
ENDROOT
BRANCH   1   2
ATOM      2  N   LEU A   1      53.382  -5.687  -8.655  0.00  0.00    -0.239 NA
ATOM      3  H   LEU A   1      52.510  -5.457  -8.136  0.00  0.00    +0.142 HD
ENDBRANCH   1   2
BRANCH   1   4
ATOM      4  C   LEU A   1      55.738  -5.525  -7.933  0.00  0.00    +0.224 C 
ATOM      5  O   LEU A   1      56.849  -5.359  -8.400  0.00  0.00    -0.287 OA
ENDBRANCH   1   4
BRANCH   1   6
ATOM      6  CB  LEU A   1      54.191  -3.545  -7.746  0.00  0.00    +0.025 C 
BRANCH   6   7
ATOM      7  CG  LEU A   1      53.200  -2.600  -8.424  0.00  0.00    +0.002 C 
ATOM      8  CD2 LEU A   1      52.623  -1.525  -7.455  0.00  0.00    +0.000 C 
ATOM      9  CD1 LEU A   1      53.907  -1.928  -9.594  0.00  0.00    +0.000 C 
ENDBRANCH   6   7
ENDBRANCH   1   6
TORSDOF 4
REMARK  Name = ../refined-set-2016/1rjk/1rjk_pocket.pdb
REMARK  292 active torsions:
REMARK  status: ('A' for Active; 'I' for Inactive)
REMARK    1  A    between atoms: _1  and  _3
REMARK    2  A    between atoms: _3  and  _4
REMARK    3  A    between atoms: _3  and  _6
REMARK    4  A    between atoms: _6  and  _7
REMARK    5  A    between atoms: _10  and  _12
REMARK    6  A    between atoms: _12  and  _13
REMARK    7  A    between atoms: _12  and  _15
REMARK    8  A    between atoms: _15  and  _16
REMARK    9  A    between atoms: _21  and  _22
REMARK   10  A    between atoms: _24  and  _26
REMARK   11  A    between atoms: _26  and  _27
REMARK   12  A    between atoms: _26  and  _29
REMARK   13  A    between atoms: _29  and  _30
REMARK   14  A    between atoms: _34  and  _35
REMARK   15  A    between atoms: _40  and  _42
REMARK   16  A    between atoms: _42  and  _43
REMARK   17  A    between atoms: _42  and  _45
REMARK   18  A    between atoms: _45  and  _46
REMARK   19  A    between atoms: _51  and  _52
REMARK   20  A    between atoms: _54  and  _56
REMARK   21  A    between atoms: _56  and  _57
REMARK   22  A    between atoms: _56  and  _59
REMARK   23  A    between atoms: _59  and  _60
REMARK   24  A    between atoms: _66  and  _68
REMARK   25  A    between atoms: _68  and  _69
REMARK   26  A    between atoms: _68  and  _71
REMARK   27  A    between atoms: _71  and  _72
REMARK   28  A    between atoms: _78  and  _80
REMARK   29  A    between atoms: _80  and  _81
REMARK   30  A    between atoms: _80  and  _83
REMARK   31  A    between atoms: _83  and  _84
REMARK   32  A    between atoms: _84  and  _85
REMARK   33  A    between atoms: _85  and  _86
REMARK   34  A    between atoms: _95  and  _97
REMARK   35  A    between atoms: _97  and  _98
REMARK   36  A    between atoms: _97  and  _100
REMARK   37  A    between atoms: _100  and  _101
REMARK   38  A    between atoms: _104  and  _106
REMARK   39  A    between atoms: _106  and  _107
REMARK   40  A    between atoms: _106  and  _109
REMARK   41  A    between atoms: _109  and  _110
REMARK   42  A    between atoms: _110  and  _111
REMARK   43  A    between atoms: _113  and  _115
REMARK   44  A    between atoms: _115  and  _116
REMARK   45  A    between atoms: _115  and  _118
REMARK   46  A    between atoms: _118  and  _119
REMARK   47  A    between atoms: _123  and  _124
REMARK   48  A    between atoms: _129  and  _131
REMARK   49  A    between atoms: _131  and  _132
REMARK   50  A    between atoms: _131  and  _134
REMARK   51  A    between atoms: _134  and  _135
REMARK   52  A    between atoms: _140  and  _142
REMARK   53  A    between atoms: _142  and  _143
REMARK   54  A    between atoms: _142  and  _145
REMARK   55  A    between atoms: _145  and  _146
REMARK   56  A    between atoms: _149  and  _151
REMARK   57  A    between atoms: _151  and  _152
REMARK   58  A    between atoms: _155  and  _157
REMARK   59  A    between atoms: _157  and  _158
REMARK   60  A    between atoms: _157  and  _160
REMARK   61  A    between atoms: _160  and  _161
REMARK   62  A    between atoms: _164  and  _166
REMARK   63  A    between atoms: _166  and  _167
REMARK   64  A    between atoms: _166  and  _169
REMARK   65  A    between atoms: _169  and  _170
REMARK   66  A    between atoms: _173  and  _175
REMARK   67  A    between atoms: _175  and  _176
REMARK   68  A    between atoms: _175  and  _178
REMARK   69  A    between atoms: _181  and  _183
REMARK   70  A    between atoms: _183  and  _184
REMARK   71  A    between atoms: _183  and  _186
REMARK   72  A    between atoms: _186  and  _187
REMARK   73  A    between atoms: _189  and  _191
REMARK   74  A    between atoms: _191  and  _192
REMARK   75  A    between atoms: _191  and  _194
REMARK   76  A    between atoms: _194  and  _195
REMARK   77  A    between atoms: _200  and  _201
REMARK   78  A    between atoms: _203  and  _205
REMARK   79  A    between atoms: _205  and  _206
REMARK   80  A    between atoms: _205  and  _208
REMARK   81  A    between atoms: _208  and  _209
REMARK   82  A    between atoms: _211  and  _213
REMARK   83  A    between atoms: _213  and  _214
REMARK   84  A    between atoms: _213  and  _216
REMARK   85  A    between atoms: _216  and  _217
REMARK   86  A    between atoms: _220  and  _222
REMARK   87  A    between atoms: _222  and  _223
REMARK   88  A    between atoms: _222  and  _225
REMARK   89  A    between atoms: _225  and  _226
REMARK   90  A    between atoms: _226  and  _227
REMARK   91  A    between atoms: _227  and  _228
REMARK   92  A    between atoms: _228  and  _229
REMARK   93  A    between atoms: _233  and  _235
REMARK   94  A    between atoms: _235  and  _236
REMARK   95  A    between atoms: _235  and  _238
REMARK   96  A    between atoms: _241  and  _243
REMARK   97  A    between atoms: _243  and  _244
REMARK   98  A    between atoms: _247  and  _249
REMARK   99  A    between atoms: _249  and  _250
REMARK  100  A    between atoms: _249  and  _252
REMARK  101  A    between atoms: _252  and  _253
REMARK  102  A    between atoms: _256  and  _258
REMARK  103  A    between atoms: _258  and  _259
REMARK  104  A    between atoms: _258  and  _261
REMARK  105  A    between atoms: _261  and  _262
REMARK  106  A    between atoms: _262  and  _263
REMARK  107  A    between atoms: _266  and  _268
REMARK  108  A    between atoms: _268  and  _269
REMARK  109  A    between atoms: _268  and  _271
REMARK  110  A    between atoms: _274  and  _276
REMARK  111  A    between atoms: _276  and  _277
REMARK  112  A    between atoms: _276  and  _279
REMARK  113  A    between atoms: _279  and  _280
REMARK  114  A    between atoms: _283  and  _285
REMARK  115  A    between atoms: _285  and  _286
REMARK  116  A    between atoms: _285  and  _288
REMARK  117  A    between atoms: _288  and  _289
REMARK  118  A    between atoms: _289  and  _290
REMARK  119  A    between atoms: _292  and  _294
REMARK  120  A    between atoms: _294  and  _295
REMARK  121  A    between atoms: _294  and  _297
REMARK  122  A    between atoms: _297  and  _298
REMARK  123  A    between atoms: _301  and  _303
REMARK  124  A    between atoms: _303  and  _304
REMARK  125  A    between atoms: _303  and  _306
REMARK  126  A    between atoms: _306  and  _307
REMARK  127  A    between atoms: _307  and  _308
REMARK  128  A    between atoms: _308  and  _309
REMARK  129  A    between atoms: _318  and  _320
REMARK  130  A    between atoms: _320  and  _321
REMARK  131  A    between atoms: _320  and  _323
REMARK  132  A    between atoms: _323  and  _324
REMARK  133  A    between atoms: _326  and  _328
REMARK  134  A    between atoms: _328  and  _329
REMARK  135  A    between atoms: _328  and  _331
REMARK  136  A    between atoms: _331  and  _332
REMARK  137  A    between atoms: _337  and  _339
REMARK  138  A    between atoms: _339  and  _340
REMARK  139  A    between atoms: _339  and  _342
REMARK  140  A    between atoms: _342  and  _343
REMARK  141  A    between atoms: _343  and  _344
REMARK  142  A    between atoms: _349  and  _351
REMARK  143  A    between atoms: _351  and  _352
REMARK  144  A    between atoms: _351  and  _354
REMARK  145  A    between atoms: _354  and  _355
REMARK  146  A    between atoms: _357  and  _359
REMARK  147  A    between atoms: _359  and  _360
REMARK  148  A    between atoms: _359  and  _362
REMARK  149  A    between atoms: _362  and  _363
REMARK  150  A    between atoms: _369  and  _371
REMARK  151  A    between atoms: _371  and  _372
REMARK  152  A    between atoms: _371  and  _374
REMARK  153  A    between atoms: _374  and  _375
REMARK  154  A    between atoms: _377  and  _379
REMARK  155  A    between atoms: _379  and  _380
REMARK  156  A    between atoms: _379  and  _382
REMARK  157  A    between atoms: _382  and  _383
REMARK  158  A    between atoms: _393  and  _395
REMARK  159  A    between atoms: _395  and  _396
REMARK  160  A    between atoms: _395  and  _398
REMARK  161  A    between atoms: _398  and  _399
REMARK  162  A    between atoms: _402  and  _404
REMARK  163  A    between atoms: _404  and  _405
REMARK  164  A    between atoms: _404  and  _407
REMARK  165  A    between atoms: _409  and  _411
REMARK  166  A    between atoms: _411  and  _412
REMARK  167  A    between atoms: _411  and  _414
REMARK  168  A    between atoms: _414  and  _415
REMARK  169  A    between atoms: _420  and  _421
REMARK  170  A    between atoms: _423  and  _425
REMARK  171  A    between atoms: _425  and  _426
REMARK  172  A    between atoms: _425  and  _428
REMARK  173  A    between atoms: _428  and  _429
REMARK  174  A    between atoms: _429  and  _430
REMARK  175  A    between atoms: _430  and  _431
REMARK  176  A    between atoms: _431  and  _432
REMARK  177  A    between atoms: _436  and  _438
REMARK  178  A    between atoms: _438  and  _439
REMARK  179  A    between atoms: _438  and  _441
REMARK  180  A    between atoms: _441  and  _442
REMARK  181  A    between atoms: _447  and  _448
REMARK  182  A    between atoms: _450  and  _452
REMARK  183  A    between atoms: _452  and  _453
REMARK  184  A    between atoms: _452  and  _455
REMARK  185  A    between atoms: _455  and  _456
REMARK  186  A    between atoms: _459  and  _461
REMARK  187  A    between atoms: _461  and  _462
REMARK  188  A    between atoms: _461  and  _464
REMARK  189  A    between atoms: _464  and  _465
REMARK  190  A    between atoms: _468  and  _470
REMARK  191  A    between atoms: _470  and  _471
REMARK  192  A    between atoms: _470  and  _473
REMARK  193  A    between atoms: _476  and  _478
REMARK  194  A    between atoms: _478  and  _479
REMARK  195  A    between atoms: _478  and  _481
REMARK  196  A    between atoms: _481  and  _482
REMARK  197  A    between atoms: _484  and  _486
REMARK  198  A    between atoms: _486  and  _487
REMARK  199  A    between atoms: _490  and  _492
REMARK  200  A    between atoms: _492  and  _493
REMARK  201  A    between atoms: _495  and  _497
REMARK  202  A    between atoms: _497  and  _498
REMARK  203  A    between atoms: _497  and  _500
REMARK  204  A    between atoms: _500  and  _501
REMARK  205  A    between atoms: _506  and  _508
REMARK  206  A    between atoms: _508  and  _509
REMARK  207  A    between atoms: _508  and  _511
REMARK  208  A    between atoms: _511  and  _512
REMARK  209  A    between atoms: _515  and  _517
REMARK  210  A    between atoms: _517  and  _518
REMARK  211  A    between atoms: _517  and  _520
REMARK  212  A    between atoms: _520  and  _521
REMARK  213  A    between atoms: _524  and  _526
REMARK  214  A    between atoms: _526  and  _527
REMARK  215  A    between atoms: _526  and  _529
REMARK  216  A    between atoms: _529  and  _530
REMARK  217  A    between atoms: _533  and  _535
REMARK  218  A    between atoms: _535  and  _536
REMARK  219  A    between atoms: _535  and  _538
REMARK  220  A    between atoms: _538  and  _539
REMARK  221  A    between atoms: _545  and  _547
REMARK  222  A    between atoms: _547  and  _548
REMARK  223  A    between atoms: _547  and  _550
REMARK  224  A    between atoms: _550  and  _551
REMARK  225  A    between atoms: _551  and  _552
REMARK  226  A    between atoms: _557  and  _559
REMARK  227  A    between atoms: _559  and  _560
REMARK  228  A    between atoms: _559  and  _562
REMARK  229  A    between atoms: _562  and  _563
REMARK  230  A    between atoms: _566  and  _568
REMARK  231  A    between atoms: _568  and  _569
REMARK  232  A    between atoms: _568  and  _571
REMARK  233  A    between atoms: _571  and  _572
REMARK  234  A    between atoms: _572  and  _573
REMARK  235  A    between atoms: _576  and  _578
REMARK  236  A    between atoms: _578  and  _579
REMARK  237  A    between atoms: _578  and  _581
REMARK  238  A    between atoms: _581  and  _582
REMARK  239  A    between atoms: _587  and  _589
REMARK  240  A    between atoms: _589  and  _590
REMARK  241  A    between atoms: _589  and  _592
REMARK  242  A    between atoms: _592  and  _593
REMARK  243  A    between atoms: _595  and  _597
REMARK  244  A    between atoms: _597  and  _598
REMARK  245  A    between atoms: _597  and  _600
REMARK  246  A    between atoms: _600  and  _601
REMARK  247  A    between atoms: _601  and  _602
REMARK  248  A    between atoms: _607  and  _609
REMARK  249  A    between atoms: _609  and  _610
REMARK  250  A    between atoms: _609  and  _612
REMARK  251  A    between atoms: _612  and  _613
REMARK  252  A    between atoms: _618  and  _619
REMARK  253  A    between atoms: _621  and  _623
REMARK  254  A    between atoms: _623  and  _624
REMARK  255  A    between atoms: _623  and  _626
REMARK  256  A    between atoms: _626  and  _627
REMARK  257  A    between atoms: _627  and  _628
REMARK  258  A    between atoms: _628  and  _629
REMARK  259  A    between atoms: _638  and  _640
REMARK  260  A    between atoms: _640  and  _641
REMARK  261  A    between atoms: _640  and  _643
REMARK  262  A    between atoms: _643  and  _644
REMARK  263  A    between atoms: _647  and  _649
REMARK  264  A    between atoms: _649  and  _650
REMARK  265  A    between atoms: _649  and  _652
REMARK  266  A    between atoms: _652  and  _653
REMARK  267  A    between atoms: _655  and  _657
REMARK  268  A    between atoms: _657  and  _658
REMARK  269  A    between atoms: _657  and  _660
REMARK  270  A    between atoms: _660  and  _661
REMARK  271  A    between atoms: _666  and  _668
REMARK  272  A    between atoms: _668  and  _669
REMARK  273  A    between atoms: _668  and  _671
REMARK  274  A    between atoms: _671  and  _672
REMARK  275  A    between atoms: _672  and  _673
REMARK  276  A    between atoms: _673  and  _674
REMARK  277  A    between atoms: _674  and  _675
REMARK  278  A    between atoms: _679  and  _681
REMARK  279  A    between atoms: _681  and  _682
REMARK  280  A    between atoms: _681  and  _684
REMARK  281  A    between atoms: _684  and  _685
REMARK  282  A    between atoms: _688  and  _690
REMARK  283  A    between atoms: _690  and  _691
REMARK  284  A    between atoms: _690  and  _693
REMARK  285  A    between atoms: _693  and  _694
REMARK  286  A    between atoms: _697  and  _699
REMARK  287  A    between atoms: _699  and  _700
REMARK  288  A    between atoms: _699  and  _702
REMARK  289  A    between atoms: _705  and  _707
REMARK  290  A    between atoms: _707  and  _708
REMARK  291  A    between atoms: _707  and  _710
REMARK  292  A    between atoms: _710  and  _711
REMARK                            x       y       z     vdW  Elec       q    Type
REMARK                         _______ _______ _______ _____ _____    ______ ____
ROOT
ATOM      1  CA  HIS A   2      60.408  -5.558  -9.313  0.00  0.00    +0.155 C 
ENDROOT
BRANCH   1   3
ATOM      2  C   GLU A   1      59.231  -6.570 -11.150  0.00  0.00    +0.238 C 
ATOM      3  N   HIS A   2      59.182  -6.047  -9.916  0.00  0.00    -0.297 N 
ATOM      4  H   HIS A   2      58.281  -5.993  -9.400  0.00  0.00    +0.150 HD
ATOM      5  O   GLU A   1      60.275  -6.579 -11.850  0.00  0.00    -0.274 OA
BRANCH   2   6
ATOM      6  CA  GLU A   1      57.934  -7.182 -11.679  0.00  0.00    +0.145 C 
BRANCH   6   7
ATOM      7  N   GLU A   1      57.210  -7.937 -10.666  0.00  0.00    -0.238 NA
ATOM      8  H   GLU A   1      56.297  -7.573 -10.327  0.00  0.00    +0.142 HD
ENDBRANCH   6   7
BRANCH   6   9
ATOM      9  CB  GLU A   1      57.041  -6.109 -12.307  0.00  0.00    +0.038 C 
BRANCH   9  10
ATOM     10  CG  GLU A   1      57.661  -5.381 -13.500  0.00  0.00    +0.116 C 
BRANCH  10  11
ATOM     11  CD  GLU A   1      58.021  -6.294 -14.679  0.00  0.00    +0.365 C 
ATOM     12  OE2 GLU A   1      57.349  -7.333 -14.890  0.00  0.00    -0.246 OA
ATOM     13  OE1 GLU A   1      59.000  -5.966 -15.380  0.00  0.00    -0.246 OA
ENDBRANCH  10  11
ENDBRANCH   9  10
ENDBRANCH   6   9
ENDBRANCH   2   6
ENDBRANCH   1   3
BRANCH   1  14
ATOM     14  C   HIS A   2      61.440  -6.675  -9.165  0.00  0.00    +0.241 C 
ATOM     15  N   SER A   3      61.006  -7.830  -8.683  0.00  0.00    -0.296 N 
ATOM     16  H   SER A   3      60.002  -7.924  -8.428  0.00  0.00    +0.150 HD
ATOM     17  O   HIS A   2      62.603  -6.475  -9.455  0.00  0.00    -0.273 OA
BRANCH  15  18
ATOM     18  CA  SER A   3      61.896  -8.980  -8.497  0.00  0.00    +0.166 C 
BRANCH  18  19
ATOM     19  C   SER A   3      62.532  -9.410  -9.848  0.00  0.00    +0.229 C 
ATOM     20  O   SER A   3      63.736  -9.678  -9.910  0.00  0.00    -0.286 OA
ENDBRANCH  18  19
BRANCH  18  21
ATOM     21  CB  SER A   3      61.092 -10.126  -7.871  0.00  0.00    +0.165 C 
BRANCH  21  22
ATOM     22  OG  SER A   3      61.926 -11.185  -7.436  0.00  0.00    -0.380 OA
ATOM     23  H   SER A   3      62.561 -10.846  -6.757  0.00  0.00    +0.211 HD
ENDBRANCH  21  22
ENDBRANCH  18  21
ENDBRANCH  15  18
ENDBRANCH   1  14
BRANCH   1  24
ATOM     24  CB  HIS A   2      60.208  -4.896  -7.940  0.00  0.00    +0.076 C 
BRANCH  24  25
ATOM     25  CG  HIS A   2      61.516  -4.563  -7.284  0.00  0.00    +0.082 A 
ATOM     26  ND1 HIS A   2      62.083  -5.344  -6.298  0.00  0.00    -0.227 NA
ATOM     27  CE1 HIS A   2      63.253  -4.828  -5.957  0.00  0.00    +0.199 A 
ATOM     28  NE2 HIS A   2      63.477  -3.760  -6.711  0.00  0.00    -0.221 NA
ATOM     29  CD2 HIS A   2      62.420  -3.596  -7.567  0.00  0.00    +0.115 A 
ENDBRANCH  24  25
ENDBRANCH   1  24
TORSDOF 13
REMARK  Name = ../refined-set-2016/1rjk/1rjk_pocket.pdb
REMARK  292 active torsions:
REMARK  status: ('A' for Active; 'I' for Inactive)
REMARK    1  A    between atoms: _1  and  _3
REMARK    2  A    between atoms: _3  and  _4
REMARK    3  A    between atoms: _3  and  _6
REMARK    4  A    between atoms: _6  and  _7
REMARK    5  A    between atoms: _10  and  _12
REMARK    6  A    between atoms: _12  and  _13
REMARK    7  A    between atoms: _12  and  _15
REMARK    8  A    between atoms: _15  and  _16
REMARK    9  A    between atoms: _21  and  _22
REMARK   10  A    between atoms: _24  and  _26
REMARK   11  A    between atoms: _26  and  _27
REMARK   12  A    between atoms: _26  and  _29
REMARK   13  A    between atoms: _29  and  _30
REMARK   14  A    between atoms: _34  and  _35
REMARK   15  A    between atoms: _40  and  _42
REMARK   16  A    between atoms: _42  and  _43
REMARK   17  A    between atoms: _42  and  _45
REMARK   18  A    between atoms: _45  and  _46
REMARK   19  A    between atoms: _51  and  _52
REMARK   20  A    between atoms: _54  and  _56
REMARK   21  A    between atoms: _56  and  _57
REMARK   22  A    between atoms: _56  and  _59
REMARK   23  A    between atoms: _59  and  _60
REMARK   24  A    between atoms: _66  and  _68
REMARK   25  A    between atoms: _68  and  _69
REMARK   26  A    between atoms: _68  and  _71
REMARK   27  A    between atoms: _71  and  _72
REMARK   28  A    between atoms: _78  and  _80
REMARK   29  A    between atoms: _80  and  _81
REMARK   30  A    between atoms: _80  and  _83
REMARK   31  A    between atoms: _83  and  _84
REMARK   32  A    between atoms: _84  and  _85
REMARK   33  A    between atoms: _85  and  _86
REMARK   34  A    between atoms: _95  and  _97
REMARK   35  A    between atoms: _97  and  _98
REMARK   36  A    between atoms: _97  and  _100
REMARK   37  A    between atoms: _100  and  _101
REMARK   38  A    between atoms: _104  and  _106
REMARK   39  A    between atoms: _106  and  _107
REMARK   40  A    between atoms: _106  and  _109
REMARK   41  A    between atoms: _109  and  _110
REMARK   42  A    between atoms: _110  and  _111
REMARK   43  A    between atoms: _113  and  _115
REMARK   44  A    between atoms: _115  and  _116
REMARK   45  A    between atoms: _115  and  _118
REMARK   46  A    between atoms: _118  and  _119
REMARK   47  A    between atoms: _123  and  _124
REMARK   48  A    between atoms: _129  and  _131
REMARK   49  A    between atoms: _131  and  _132
REMARK   50  A    between atoms: _131  and  _134
REMARK   51  A    between atoms: _134  and  _135
REMARK   52  A    between atoms: _140  and  _142
REMARK   53  A    between atoms: _142  and  _143
REMARK   54  A    between atoms: _142  and  _145
REMARK   55  A    between atoms: _145  and  _146
REMARK   56  A    between atoms: _149  and  _151
REMARK   57  A    between atoms: _151  and  _152
REMARK   58  A    between atoms: _155  and  _157
REMARK   59  A    between atoms: _157  and  _158
REMARK   60  A    between atoms: _157  and  _160
REMARK   61  A    between atoms: _160  and  _161
REMARK   62  A    between atoms: _164  and  _166
REMARK   63  A    between atoms: _166  and  _167
REMARK   64  A    between atoms: _166  and  _169
REMARK   65  A    between atoms: _169  and  _170
REMARK   66  A    between atoms: _173  and  _175
REMARK   67  A    between atoms: _175  and  _176
REMARK   68  A    between atoms: _175  and  _178
REMARK   69  A    between atoms: _181  and  _183
REMARK   70  A    between atoms: _183  and  _184
REMARK   71  A    between atoms: _183  and  _186
REMARK   72  A    between atoms: _186  and  _187
REMARK   73  A    between atoms: _189  and  _191
REMARK   74  A    between atoms: _191  and  _192
REMARK   75  A    between atoms: _191  and  _194
REMARK   76  A    between atoms: _194  and  _195
REMARK   77  A    between atoms: _200  and  _201
REMARK   78  A    between atoms: _203  and  _205
REMARK   79  A    between atoms: _205  and  _206
REMARK   80  A    between atoms: _205  and  _208
REMARK   81  A    between atoms: _208  and  _209
REMARK   82  A    between atoms: _211  and  _213
REMARK   83  A    between atoms: _213  and  _214
REMARK   84  A    between atoms: _213  and  _216
REMARK   85  A    between atoms: _216  and  _217
REMARK   86  A    between atoms: _220  and  _222
REMARK   87  A    between atoms: _222  and  _223
REMARK   88  A    between atoms: _222  and  _225
REMARK   89  A    between atoms: _225  and  _226
REMARK   90  A    between atoms: _226  and  _227
REMARK   91  A    between atoms: _227  and  _228
REMARK   92  A    between atoms: _228  and  _229
REMARK   93  A    between atoms: _233  and  _235
REMARK   94  A    between atoms: _235  and  _236
REMARK   95  A    between atoms: _235  and  _238
REMARK   96  A    between atoms: _241  and  _243
REMARK   97  A    between atoms: _243  and  _244
REMARK   98  A    between atoms: _247  and  _249
REMARK   99  A    between atoms: _249  and  _250
REMARK  100  A    between atoms: _249  and  _252
REMARK  101  A    between atoms: _252  and  _253
REMARK  102  A    between atoms: _256  and  _258
REMARK  103  A    between atoms: _258  and  _259
REMARK  104  A    between atoms: _258  and  _261
REMARK  105  A    between atoms: _261  and  _262
REMARK  106  A    between atoms: _262  and  _263
REMARK  107  A    between atoms: _266  and  _268
REMARK  108  A    between atoms: _268  and  _269
REMARK  109  A    between atoms: _268  and  _271
REMARK  110  A    between atoms: _274  and  _276
REMARK  111  A    between atoms: _276  and  _277
REMARK  112  A    between atoms: _276  and  _279
REMARK  113  A    between atoms: _279  and  _280
REMARK  114  A    between atoms: _283  and  _285
REMARK  115  A    between atoms: _285  and  _286
REMARK  116  A    between atoms: _285  and  _288
REMARK  117  A    between atoms: _288  and  _289
REMARK  118  A    between atoms: _289  and  _290
REMARK  119  A    between atoms: _292  and  _294
REMARK  120  A    between atoms: _294  and  _295
REMARK  121  A    between atoms: _294  and  _297
REMARK  122  A    between atoms: _297  and  _298
REMARK  123  A    between atoms: _301  and  _303
REMARK  124  A    between atoms: _303  and  _304
REMARK  125  A    between atoms: _303  and  _306
REMARK  126  A    between atoms: _306  and  _307
REMARK  127  A    between atoms: _307  and  _308
REMARK  128  A    between atoms: _308  and  _309
REMARK  129  A    between atoms: _318  and  _320
REMARK  130  A    between atoms: _320  and  _321
REMARK  131  A    between atoms: _320  and  _323
REMARK  132  A    between atoms: _323  and  _324
REMARK  133  A    between atoms: _326  and  _328
REMARK  134  A    between atoms: _328  and  _329
REMARK  135  A    between atoms: _328  and  _331
REMARK  136  A    between atoms: _331  and  _332
REMARK  137  A    between atoms: _337  and  _339
REMARK  138  A    between atoms: _339  and  _340
REMARK  139  A    between atoms: _339  and  _342
REMARK  140  A    between atoms: _342  and  _343
REMARK  141  A    between atoms: _343  and  _344
REMARK  142  A    between atoms: _349  and  _351
REMARK  143  A    between atoms: _351  and  _352
REMARK  144  A    between atoms: _351  and  _354
REMARK  145  A    between atoms: _354  and  _355
REMARK  146  A    between atoms: _357  and  _359
REMARK  147  A    between atoms: _359  and  _360
REMARK  148  A    between atoms: _359  and  _362
REMARK  149  A    between atoms: _362  and  _363
REMARK  150  A    between atoms: _369  and  _371
REMARK  151  A    between atoms: _371  and  _372
REMARK  152  A    between atoms: _371  and  _374
REMARK  153  A    between atoms: _374  and  _375
REMARK  154  A    between atoms: _377  and  _379
REMARK  155  A    between atoms: _379  and  _380
REMARK  156  A    between atoms: _379  and  _382
REMARK  157  A    between atoms: _382  and  _383
REMARK  158  A    between atoms: _393  and  _395
REMARK  159  A    between atoms: _395  and  _396
REMARK  160  A    between atoms: _395  and  _398
REMARK  161  A    between atoms: _398  and  _399
REMARK  162  A    between atoms: _402  and  _404
REMARK  163  A    between atoms: _404  and  _405
REMARK  164  A    between atoms: _404  and  _407
REMARK  165  A    between atoms: _409  and  _411
REMARK  166  A    between atoms: _411  and  _412
REMARK  167  A    between atoms: _411  and  _414
REMARK  168  A    between atoms: _414  and  _415
REMARK  169  A    between atoms: _420  and  _421
REMARK  170  A    between atoms: _423  and  _425
REMARK  171  A    between atoms: _425  and  _426
REMARK  172  A    between atoms: _425  and  _428
REMARK  173  A    between atoms: _428  and  _429
REMARK  174  A    between atoms: _429  and  _430
REMARK  175  A    between atoms: _430  and  _431
REMARK  176  A    between atoms: _431  and  _432
REMARK  177  A    between atoms: _436  and  _438
REMARK  178  A    between atoms: _438  and  _439
REMARK  179  A    between atoms: _438  and  _441
REMARK  180  A    between atoms: _441  and  _442
REMARK  181  A    between atoms: _447  and  _448
REMARK  182  A    between atoms: _450  and  _452
REMARK  183  A    between atoms: _452  and  _453
REMARK  184  A    between atoms: _452  and  _455
REMARK  185  A    between atoms: _455  and  _456
REMARK  186  A    between atoms: _459  and  _461
REMARK  187  A    between atoms: _461  and  _462
REMARK  188  A    between atoms: _461  and  _464
REMARK  189  A    between atoms: _464  and  _465
REMARK  190  A    between atoms: _468  and  _470
REMARK  191  A    between atoms: _470  and  _471
REMARK  192  A    between atoms: _470  and  _473
REMARK  193  A    between atoms: _476  and  _478
REMARK  194  A    between atoms: _478  and  _479
REMARK  195  A    between atoms: _478  and  _481
REMARK  196  A    between atoms: _481  and  _482
REMARK  197  A    between atoms: _484  and  _486
REMARK  198  A    between atoms: _486  and  _487
REMARK  199  A    between atoms: _490  and  _492
REMARK  200  A    between atoms: _492  and  _493
REMARK  201  A    between atoms: _495  and  _497
REMARK  202  A    between atoms: _497  and  _498
REMARK  203  A    between atoms: _497  and  _500
REMARK  204  A    between atoms: _500  and  _501
REMARK  205  A    between atoms: _506  and  _508
REMARK  206  A    between atoms: _508  and  _509
REMARK  207  A    between atoms: _508  and  _511
REMARK  208  A    between atoms: _511  and  _512
REMARK  209  A    between atoms: _515  and  _517
REMARK  210  A    between atoms: _517  and  _518
REMARK  211  A    between atoms: _517  and  _520
REMARK  212  A    between atoms: _520  and  _521
REMARK  213  A    between atoms: _524  and  _526
REMARK  214  A    between atoms: _526  and  _527
REMARK  215  A    between atoms: _526  and  _529
REMARK  216  A    between atoms: _529  and  _530
REMARK  217  A    between atoms: _533  and  _535
REMARK  218  A    between atoms: _535  and  _536
REMARK  219  A    between atoms: _535  and  _538
REMARK  220  A    between atoms: _538  and  _539
REMARK  221  A    between atoms: _545  and  _547
REMARK  222  A    between atoms: _547  and  _548
REMARK  223  A    between atoms: _547  and  _550
REMARK  224  A    between atoms: _550  and  _551
REMARK  225  A    between atoms: _551  and  _552
REMARK  226  A    between atoms: _557  and  _559
REMARK  227  A    between atoms: _559  and  _560
REMARK  228  A    between atoms: _559  and  _562
REMARK  229  A    between atoms: _562  and  _563
REMARK  230  A    between atoms: _566  and  _568
REMARK  231  A    between atoms: _568  and  _569
REMARK  232  A    between atoms: _568  and  _571
REMARK  233  A    between atoms: _571  and  _572
REMARK  234  A    between atoms: _572  and  _573
REMARK  235  A    between atoms: _576  and  _578
REMARK  236  A    between atoms: _578  and  _579
REMARK  237  A    between atoms: _578  and  _581
REMARK  238  A    between atoms: _581  and  _582
REMARK  239  A    between atoms: _587  and  _589
REMARK  240  A    between atoms: _589  and  _590
REMARK  241  A    between atoms: _589  and  _592
REMARK  242  A    between atoms: _592  and  _593
REMARK  243  A    between atoms: _595  and  _597
REMARK  244  A    between atoms: _597  and  _598
REMARK  245  A    between atoms: _597  and  _600
REMARK  246  A    between atoms: _600  and  _601
REMARK  247  A    between atoms: _601  and  _602
REMARK  248  A    between atoms: _607  and  _609
REMARK  249  A    between atoms: _609  and  _610
REMARK  250  A    between atoms: _609  and  _612
REMARK  251  A    between atoms: _612  and  _613
REMARK  252  A    between atoms: _618  and  _619
REMARK  253  A    between atoms: _621  and  _623
REMARK  254  A    between atoms: _623  and  _624
REMARK  255  A    between atoms: _623  and  _626
REMARK  256  A    between atoms: _626  and  _627
REMARK  257  A    between atoms: _627  and  _628
REMARK  258  A    between atoms: _628  and  _629
REMARK  259  A    between atoms: _638  and  _640
REMARK  260  A    between atoms: _640  and  _641
REMARK  261  A    between atoms: _640  and  _643
REMARK  262  A    between atoms: _643  and  _644
REMARK  263  A    between atoms: _647  and  _649
REMARK  264  A    between atoms: _649  and  _650
REMARK  265  A    between atoms: _649  and  _652
REMARK  266  A    between atoms: _652  and  _653
REMARK  267  A    between atoms: _655  and  _657
REMARK  268  A    between atoms: _657  and  _658
REMARK  269  A    between atoms: _657  and  _660
REMARK  270  A    between atoms: _660  and  _661
REMARK  271  A    between atoms: _666  and  _668
REMARK  272  A    between atoms: _668  and  _669
REMARK  273  A    between atoms: _668  and  _671
REMARK  274  A    between atoms: _671  and  _672
REMARK  275  A    between atoms: _672  and  _673
REMARK  276  A    between atoms: _673  and  _674
REMARK  277  A    between atoms: _674  and  _675
REMARK  278  A    between atoms: _679  and  _681
REMARK  279  A    between atoms: _681  and  _682
REMARK  280  A    between atoms: _681  and  _684
REMARK  281  A    between atoms: _684  and  _685
REMARK  282  A    between atoms: _688  and  _690
REMARK  283  A    between atoms: _690  and  _691
REMARK  284  A    between atoms: _690  and  _693
REMARK  285  A    between atoms: _693  and  _694
REMARK  286  A    between atoms: _697  and  _699
REMARK  287  A    between atoms: _699  and  _700
REMARK  288  A    between atoms: _699  and  _702
REMARK  289  A    between atoms: _705  and  _707
REMARK  290  A    between atoms: _707  and  _708
REMARK  291  A    between atoms: _707  and  _710
REMARK  292  A    between atoms: _710  and  _711
REMARK                            x       y       z     vdW  Elec       q    Type
REMARK                         _______ _______ _______ _____ _____    ______ ____
ROOT
ATOM      1  CA  TYR A   2      66.097  -6.615  -9.857  0.00  0.00    +0.153 C 
ENDROOT
BRANCH   1   3
ATOM      2  C   GLN A   1      65.203  -6.392 -12.095  0.00  0.00    +0.238 C 
ATOM      3  N   TYR A   2      64.987  -6.647 -10.809  0.00  0.00    -0.297 N 
ATOM      4  H   TYR A   2      64.026  -6.870 -10.479  0.00  0.00    +0.150 HD
ATOM      5  O   GLN A   1      66.333  -6.160 -12.558  0.00  0.00    -0.274 OA
BRANCH   2   6
ATOM      6  CA  GLN A   1      63.982  -6.422 -13.020  0.00  0.00    +0.145 C 
BRANCH   6   7
ATOM      7  N   GLN A   1      63.022  -7.437 -12.610  0.00  0.00    -0.238 NA
ATOM      8  H   GLN A   1      62.099  -7.146 -12.230  0.00  0.00    +0.142 HD
ENDBRANCH   6   7
BRANCH   6   9
ATOM      9  CB  GLN A   1      63.339  -5.033 -13.145  0.00  0.00    +0.036 C 
BRANCH   9  10
ATOM     10  CG  GLN A   1      62.119  -4.992 -14.095  0.00  0.00    +0.087 C 
BRANCH  10  11
ATOM     11  CD  GLN A   1      61.703  -3.602 -14.478  0.00  0.00    +0.219 C 
ATOM     12  OE1 GLN A   1      62.339  -2.622 -14.089  0.00  0.00    -0.275 OA
ATOM     13  NE2 GLN A   1      60.646  -3.505 -15.253  0.00  0.00    -0.329 N 
ATOM     14 HE21 GLN A   1      60.142  -4.363 -15.555  0.00  0.00    +0.145 HD
ATOM     15 HE22 GLN A   1      60.313  -2.570 -15.564  0.00  0.00    +0.145 HD
ENDBRANCH  10  11
ENDBRANCH   9  10
ENDBRANCH   6   9
ENDBRANCH   2   6
ENDBRANCH   1   3
BRANCH   1  16
ATOM     16  C   TYR A   2      67.055  -7.773 -10.179  0.00  0.00    +0.241 C 
ATOM     17  O   TYR A   2      68.265  -7.606 -10.137  0.00  0.00    -0.273 OA
ATOM     18  N   ARG A   3      66.492  -8.935 -10.496  0.00  0.00    -0.298 N 
ATOM     19  H   ARG A   3      65.454  -8.998 -10.515  0.00  0.00    +0.150 HD
BRANCH  18  20
ATOM     20  CA  ARG A   3      67.274 -10.127 -10.819  0.00  0.00    +0.137 C 
BRANCH  20  21
ATOM     21  C   ARG A   3      68.149  -9.844 -12.052  0.00  0.00    +0.227 C 
ATOM     22  O   ARG A   3      69.340 -10.142 -12.044  0.00  0.00    -0.286 OA
ENDBRANCH  20  21
BRANCH  20  23
ATOM     23  CB  ARG A   3      66.313 -11.330 -10.948  0.00  0.00    +0.031 C 
BRANCH  23  24
ATOM     24  CG  ARG A   3      66.831 -12.664 -11.477  0.00  0.00    +0.045 C 
BRANCH  24  25
ATOM     25  CD  ARG A   3      65.713 -13.754 -11.600  0.00  0.00    +0.174 C 
BRANCH  25  26
ATOM     26  NE  ARG A   3      64.484 -13.438 -10.834  0.00  0.00    -0.265 N 
ATOM     27  HE  ARG A   3      64.594 -13.229  -9.821  0.00  0.00    +0.259 HD
ATOM     28  CZ  ARG A   3      63.237 -13.399 -11.340  0.00  0.00    +0.342 C 
ATOM     29  NH2 ARG A   3      62.200 -13.102 -10.548  0.00  0.00    -0.292 N 
ATOM     30 HH21 ARG A   3      62.357 -12.901  -9.540  0.00  0.00    +0.255 HD
ATOM     31 HH22 ARG A   3      61.237 -13.072 -10.941  0.00  0.00    +0.255 HD
ATOM     32  NH1 ARG A   3      63.015 -13.657 -12.632  0.00  0.00    -0.292 N 
ATOM     33 HH11 ARG A   3      62.047 -13.623 -13.010  0.00  0.00    +0.255 HD
ATOM     34 HH12 ARG A   3      63.810 -13.891 -13.260  0.00  0.00    +0.255 HD
ENDBRANCH  25  26
ENDBRANCH  24  25
ENDBRANCH  23  24
ENDBRANCH  20  23
ENDBRANCH  18  20
ENDBRANCH   1  16
BRANCH   1  35
ATOM     35  CB  TYR A   2      65.612  -6.716  -8.405  0.00  0.00    +0.055 C 
BRANCH  35  36
ATOM     36  CG  TYR A   2      66.761  -6.918  -7.436  0.00  0.00    -0.020 A 
ATOM     37  CD2 TYR A   2      67.420  -5.834  -6.886  0.00  0.00    -0.001 A 
ATOM     38  CE2 TYR A   2      68.505  -6.000  -6.004  0.00  0.00    +0.036 A 
ATOM     39  CZ  TYR A   2      68.943  -7.287  -5.697  0.00  0.00    +0.134 A 
ATOM     40  CE1 TYR A   2      68.309  -8.405  -6.246  0.00  0.00    +0.036 A 
ATOM     41  CD1 TYR A   2      67.208  -8.206  -7.110  0.00  0.00    -0.001 A 
BRANCH  39  42
ATOM     42  OH  TYR A   2      70.006  -7.435  -4.850  0.00  0.00    -0.506 OA
ATOM     43  HH  TYR A   2      70.736  -7.912  -5.319  0.00  0.00    +0.292 HD
ENDBRANCH  39  42
ENDBRANCH  35  36
ENDBRANCH   1  35
TORSDOF 16
REMARK  Name = ../refined-set-2016/1rjk/1rjk_pocket.pdb
REMARK  292 active torsions:
REMARK  status: ('A' for Active; 'I' for Inactive)
REMARK    1  A    between atoms: _1  and  _3
REMARK    2  A    between atoms: _3  and  _4
REMARK    3  A    between atoms: _3  and  _6
REMARK    4  A    between atoms: _6  and  _7
REMARK    5  A    between atoms: _10  and  _12
REMARK    6  A    between atoms: _12  and  _13
REMARK    7  A    between atoms: _12  and  _15
REMARK    8  A    between atoms: _15  and  _16
REMARK    9  A    between atoms: _21  and  _22
REMARK   10  A    between atoms: _24  and  _26
REMARK   11  A    between atoms: _26  and  _27
REMARK   12  A    between atoms: _26  and  _29
REMARK   13  A    between atoms: _29  and  _30
REMARK   14  A    between atoms: _34  and  _35
REMARK   15  A    between atoms: _40  and  _42
REMARK   16  A    between atoms: _42  and  _43
REMARK   17  A    between atoms: _42  and  _45
REMARK   18  A    between atoms: _45  and  _46
REMARK   19  A    between atoms: _51  and  _52
REMARK   20  A    between atoms: _54  and  _56
REMARK   21  A    between atoms: _56  and  _57
REMARK   22  A    between atoms: _56  and  _59
REMARK   23  A    between atoms: _59  and  _60
REMARK   24  A    between atoms: _66  and  _68
REMARK   25  A    between atoms: _68  and  _69
REMARK   26  A    between atoms: _68  and  _71
REMARK   27  A    between atoms: _71  and  _72
REMARK   28  A    between atoms: _78  and  _80
REMARK   29  A    between atoms: _80  and  _81
REMARK   30  A    between atoms: _80  and  _83
REMARK   31  A    between atoms: _83  and  _84
REMARK   32  A    between atoms: _84  and  _85
REMARK   33  A    between atoms: _85  and  _86
REMARK   34  A    between atoms: _95  and  _97
REMARK   35  A    between atoms: _97  and  _98
REMARK   36  A    between atoms: _97  and  _100
REMARK   37  A    between atoms: _100  and  _101
REMARK   38  A    between atoms: _104  and  _106
REMARK   39  A    between atoms: _106  and  _107
REMARK   40  A    between atoms: _106  and  _109
REMARK   41  A    between atoms: _109  and  _110
REMARK   42  A    between atoms: _110  and  _111
REMARK   43  A    between atoms: _113  and  _115
REMARK   44  A    between atoms: _115  and  _116
REMARK   45  A    between atoms: _115  and  _118
REMARK   46  A    between atoms: _118  and  _119
REMARK   47  A    between atoms: _123  and  _124
REMARK   48  A    between atoms: _129  and  _131
REMARK   49  A    between atoms: _131  and  _132
REMARK   50  A    between atoms: _131  and  _134
REMARK   51  A    between atoms: _134  and  _135
REMARK   52  A    between atoms: _140  and  _142
REMARK   53  A    between atoms: _142  and  _143
REMARK   54  A    between atoms: _142  and  _145
REMARK   55  A    between atoms: _145  and  _146
REMARK   56  A    between atoms: _149  and  _151
REMARK   57  A    between atoms: _151  and  _152
REMARK   58  A    between atoms: _155  and  _157
REMARK   59  A    between atoms: _157  and  _158
REMARK   60  A    between atoms: _157  and  _160
REMARK   61  A    between atoms: _160  and  _161
REMARK   62  A    between atoms: _164  and  _166
REMARK   63  A    between atoms: _166  and  _167
REMARK   64  A    between atoms: _166  and  _169
REMARK   65  A    between atoms: _169  and  _170
REMARK   66  A    between atoms: _173  and  _175
REMARK   67  A    between atoms: _175  and  _176
REMARK   68  A    between atoms: _175  and  _178
REMARK   69  A    between atoms: _181  and  _183
REMARK   70  A    between atoms: _183  and  _184
REMARK   71  A    between atoms: _183  and  _186
REMARK   72  A    between atoms: _186  and  _187
REMARK   73  A    between atoms: _189  and  _191
REMARK   74  A    between atoms: _191  and  _192
REMARK   75  A    between atoms: _191  and  _194
REMARK   76  A    between atoms: _194  and  _195
REMARK   77  A    between atoms: _200  and  _201
REMARK   78  A    between atoms: _203  and  _205
REMARK   79  A    between atoms: _205  and  _206
REMARK   80  A    between atoms: _205  and  _208
REMARK   81  A    between atoms: _208  and  _209
REMARK   82  A    between atoms: _211  and  _213
REMARK   83  A    between atoms: _213  and  _214
REMARK   84  A    between atoms: _213  and  _216
REMARK   85  A    between atoms: _216  and  _217
REMARK   86  A    between atoms: _220  and  _222
REMARK   87  A    between atoms: _222  and  _223
REMARK   88  A    between atoms: _222  and  _225
REMARK   89  A    between atoms: _225  and  _226
REMARK   90  A    between atoms: _226  and  _227
REMARK   91  A    between atoms: _227  and  _228
REMARK   92  A    between atoms: _228  and  _229
REMARK   93  A    between atoms: _233  and  _235
REMARK   94  A    between atoms: _235  and  _236
REMARK   95  A    between atoms: _235  and  _238
REMARK   96  A    between atoms: _241  and  _243
REMARK   97  A    between atoms: _243  and  _244
REMARK   98  A    between atoms: _247  and  _249
REMARK   99  A    between atoms: _249  and  _250
REMARK  100  A    between atoms: _249  and  _252
REMARK  101  A    between atoms: _252  and  _253
REMARK  102  A    between atoms: _256  and  _258
REMARK  103  A    between atoms: _258  and  _259
REMARK  104  A    between atoms: _258  and  _261
REMARK  105  A    between atoms: _261  and  _262
REMARK  106  A    between atoms: _262  and  _263
REMARK  107  A    between atoms: _266  and  _268
REMARK  108  A    between atoms: _268  and  _269
REMARK  109  A    between atoms: _268  and  _271
REMARK  110  A    between atoms: _274  and  _276
REMARK  111  A    between atoms: _276  and  _277
REMARK  112  A    between atoms: _276  and  _279
REMARK  113  A    between atoms: _279  and  _280
REMARK  114  A    between atoms: _283  and  _285
REMARK  115  A    between atoms: _285  and  _286
REMARK  116  A    between atoms: _285  and  _288
REMARK  117  A    between atoms: _288  and  _289
REMARK  118  A    between atoms: _289  and  _290
REMARK  119  A    between atoms: _292  and  _294
REMARK  120  A    between atoms: _294  and  _295
REMARK  121  A    between atoms: _294  and  _297
REMARK  122  A    between atoms: _297  and  _298
REMARK  123  A    between atoms: _301  and  _303
REMARK  124  A    between atoms: _303  and  _304
REMARK  125  A    between atoms: _303  and  _306
REMARK  126  A    between atoms: _306  and  _307
REMARK  127  A    between atoms: _307  and  _308
REMARK  128  A    between atoms: _308  and  _309
REMARK  129  A    between atoms: _318  and  _320
REMARK  130  A    between atoms: _320  and  _321
REMARK  131  A    between atoms: _320  and  _323
REMARK  132  A    between atoms: _323  and  _324
REMARK  133  A    between atoms: _326  and  _328
REMARK  134  A    between atoms: _328  and  _329
REMARK  135  A    between atoms: _328  and  _331
REMARK  136  A    between atoms: _331  and  _332
REMARK  137  A    between atoms: _337  and  _339
REMARK  138  A    between atoms: _339  and  _340
REMARK  139  A    between atoms: _339  and  _342
REMARK  140  A    between atoms: _342  and  _343
REMARK  141  A    between atoms: _343  and  _344
REMARK  142  A    between atoms: _349  and  _351
REMARK  143  A    between atoms: _351  and  _352
REMARK  144  A    between atoms: _351  and  _354
REMARK  145  A    between atoms: _354  and  _355
REMARK  146  A    between atoms: _357  and  _359
REMARK  147  A    between atoms: _359  and  _360
REMARK  148  A    between atoms: _359  and  _362
REMARK  149  A    between atoms: _362  and  _363
REMARK  150  A    between atoms: _369  and  _371
REMARK  151  A    between atoms: _371  and  _372
REMARK  152  A    between atoms: _371  and  _374
REMARK  153  A    between atoms: _374  and  _375
REMARK  154  A    between atoms: _377  and  _379
REMARK  155  A    between atoms: _379  and  _380
REMARK  156  A    between atoms: _379  and  _382
REMARK  157  A    between atoms: _382  and  _383
REMARK  158  A    between atoms: _393  and  _395
REMARK  159  A    between atoms: _395  and  _396
REMARK  160  A    between atoms: _395  and  _398
REMARK  161  A    between atoms: _398  and  _399
REMARK  162  A    between atoms: _402  and  _404
REMARK  163  A    between atoms: _404  and  _405
REMARK  164  A    between atoms: _404  and  _407
REMARK  165  A    between atoms: _409  and  _411
REMARK  166  A    between atoms: _411  and  _412
REMARK  167  A    between atoms: _411  and  _414
REMARK  168  A    between atoms: _414  and  _415
REMARK  169  A    between atoms: _420  and  _421
REMARK  170  A    between atoms: _423  and  _425
REMARK  171  A    between atoms: _425  and  _426
REMARK  172  A    between atoms: _425  and  _428
REMARK  173  A    between atoms: _428  and  _429
REMARK  174  A    between atoms: _429  and  _430
REMARK  175  A    between atoms: _430  and  _431
REMARK  176  A    between atoms: _431  and  _432
REMARK  177  A    between atoms: _436  and  _438
REMARK  178  A    between atoms: _438  and  _439
REMARK  179  A    between atoms: _438  and  _441
REMARK  180  A    between atoms: _441  and  _442
REMARK  181  A    between atoms: _447  and  _448
REMARK  182  A    between atoms: _450  and  _452
REMARK  183  A    between atoms: _452  and  _453
REMARK  184  A    between atoms: _452  and  _455
REMARK  185  A    between atoms: _455  and  _456
REMARK  186  A    between atoms: _459  and  _461
REMARK  187  A    between atoms: _461  and  _462
REMARK  188  A    between atoms: _461  and  _464
REMARK  189  A    between atoms: _464  and  _465
REMARK  190  A    between atoms: _468  and  _470
REMARK  191  A    between atoms: _470  and  _471
REMARK  192  A    between atoms: _470  and  _473
REMARK  193  A    between atoms: _476  and  _478
REMARK  194  A    between atoms: _478  and  _479
REMARK  195  A    between atoms: _478  and  _481
REMARK  196  A    between atoms: _481  and  _482
REMARK  197  A    between atoms: _484  and  _486
REMARK  198  A    between atoms: _486  and  _487
REMARK  199  A    between atoms: _490  and  _492
REMARK  200  A    between atoms: _492  and  _493
REMARK  201  A    between atoms: _495  and  _497
REMARK  202  A    between atoms: _497  and  _498
REMARK  203  A    between atoms: _497  and  _500
REMARK  204  A    between atoms: _500  and  _501
REMARK  205  A    between atoms: _506  and  _508
REMARK  206  A    between atoms: _508  and  _509
REMARK  207  A    between atoms: _508  and  _511
REMARK  208  A    between atoms: _511  and  _512
REMARK  209  A    between atoms: _515  and  _517
REMARK  210  A    between atoms: _517  and  _518
REMARK  211  A    between atoms: _517  and  _520
REMARK  212  A    between atoms: _520  and  _521
REMARK  213  A    between atoms: _524  and  _526
REMARK  214  A    between atoms: _526  and  _527
REMARK  215  A    between atoms: _526  and  _529
REMARK  216  A    between atoms: _529  and  _530
REMARK  217  A    between atoms: _533  and  _535
REMARK  218  A    between atoms: _535  and  _536
REMARK  219  A    between atoms: _535  and  _538
REMARK  220  A    between atoms: _538  and  _539
REMARK  221  A    between atoms: _545  and  _547
REMARK  222  A    between atoms: _547  and  _548
REMARK  223  A    between atoms: _547  and  _550
REMARK  224  A    between atoms: _550  and  _551
REMARK  225  A    between atoms: _551  and  _552
REMARK  226  A    between atoms: _557  and  _559
REMARK  227  A    between atoms: _559  and  _560
REMARK  228  A    between atoms: _559  and  _562
REMARK  229  A    between atoms: _562  and  _563
REMARK  230  A    between atoms: _566  and  _568
REMARK  231  A    between atoms: _568  and  _569
REMARK  232  A    between atoms: _568  and  _571
REMARK  233  A    between atoms: _571  and  _572
REMARK  234  A    between atoms: _572  and  _573
REMARK  235  A    between atoms: _576  and  _578
REMARK  236  A    between atoms: _578  and  _579
REMARK  237  A    between atoms: _578  and  _581
REMARK  238  A    between atoms: _581  and  _582
REMARK  239  A    between atoms: _587  and  _589
REMARK  240  A    between atoms: _589  and  _590
REMARK  241  A    between atoms: _589  and  _592
REMARK  242  A    between atoms: _592  and  _593
REMARK  243  A    between atoms: _595  and  _597
REMARK  244  A    between atoms: _597  and  _598
REMARK  245  A    between atoms: _597  and  _600
REMARK  246  A    between atoms: _600  and  _601
REMARK  247  A    between atoms: _601  and  _602
REMARK  248  A    between atoms: _607  and  _609
REMARK  249  A    between atoms: _609  and  _610
REMARK  250  A    between atoms: _609  and  _612
REMARK  251  A    between atoms: _612  and  _613
REMARK  252  A    between atoms: _618  and  _619
REMARK  253  A    between atoms: _621  and  _623
REMARK  254  A    between atoms: _623  and  _624
REMARK  255  A    between atoms: _623  and  _626
REMARK  256  A    between atoms: _626  and  _627
REMARK  257  A    between atoms: _627  and  _628
REMARK  258  A    between atoms: _628  and  _629
REMARK  259  A    between atoms: _638  and  _640
REMARK  260  A    between atoms: _640  and  _641
REMARK  261  A    between atoms: _640  and  _643
REMARK  262  A    between atoms: _643  and  _644
REMARK  263  A    between atoms: _647  and  _649
REMARK  264  A    between atoms: _649  and  _650
REMARK  265  A    between atoms: _649  and  _652
REMARK  266  A    between atoms: _652  and  _653
REMARK  267  A    between atoms: _655  and  _657
REMARK  268  A    between atoms: _657  and  _658
REMARK  269  A    between atoms: _657  and  _660
REMARK  270  A    between atoms: _660  and  _661
REMARK  271  A    between atoms: _666  and  _668
REMARK  272  A    between atoms: _668  and  _669
REMARK  273  A    between atoms: _668  and  _671
REMARK  274  A    between atoms: _671  and  _672
REMARK  275  A    between atoms: _672  and  _673
REMARK  276  A    between atoms: _673  and  _674
REMARK  277  A    between atoms: _674  and  _675
REMARK  278  A    between atoms: _679  and  _681
REMARK  279  A    between atoms: _681  and  _682
REMARK  280  A    between atoms: _681  and  _684
REMARK  281  A    between atoms: _684  and  _685
REMARK  282  A    between atoms: _688  and  _690
REMARK  283  A    between atoms: _690  and  _691
REMARK  284  A    between atoms: _690  and  _693
REMARK  285  A    between atoms: _693  and  _694
REMARK  286  A    between atoms: _697  and  _699
REMARK  287  A    between atoms: _699  and  _700
REMARK  288  A    between atoms: _699  and  _702
REMARK  289  A    between atoms: _705  and  _707
REMARK  290  A    between atoms: _707  and  _708
REMARK  291  A    between atoms: _707  and  _710
REMARK  292  A    between atoms: _710  and  _711
REMARK                            x       y       z     vdW  Elec       q    Type
REMARK                         _______ _______ _______ _____ _____    ______ ____
ROOT
ATOM      1  C   LEU A   1      71.115  -6.256 -11.986  0.00  0.00    +0.238 C 
ATOM      2  N   SER A   2      70.819  -7.070 -10.983  0.00  0.00    -0.296 N 
ATOM      3  H   SER A   2      69.834  -7.377 -10.850  0.00  0.00    +0.150 HD
ATOM      4  O   LEU A   1      72.278  -5.999 -12.292  0.00  0.00    -0.274 OA
ENDROOT
BRANCH   1   5
ATOM      5  CA  LEU A   1      69.926  -5.650 -12.781  0.00  0.00    +0.145 C 
BRANCH   5   6
ATOM      6  N   LEU A   1      69.023  -6.666 -13.320  0.00  0.00    -0.238 NA
ATOM      7  H   LEU A   1      68.006  -6.551 -13.138  0.00  0.00    +0.142 HD
ENDBRANCH   5   6
BRANCH   5   8
ATOM      8  CB  LEU A   1      69.079  -4.793 -11.852  0.00  0.00    +0.026 C 
BRANCH   8   9
ATOM      9  CG  LEU A   1      69.242  -3.396 -11.311  0.00  0.00    +0.002 C 
ATOM     10  CD2 LEU A   1      70.194  -3.379 -10.123  0.00  0.00    +0.000 C 
ATOM     11  CD1 LEU A   1      67.825  -3.005 -10.878  0.00  0.00    +0.000 C 
ENDBRANCH   8   9
ENDBRANCH   5   8
ENDBRANCH   1   5
BRANCH   2  12
ATOM     12  CA  SER A   2      71.852  -7.549 -10.054  0.00  0.00    +0.166 C 
BRANCH  12  13
ATOM     13  CB  SER A   2      72.733  -8.654 -10.633  0.00  0.00    +0.229 C 
ATOM     14  OG  SER A   2      73.778  -8.983 -10.078  0.00  0.00    -0.286 OA
ENDBRANCH  12  13
BRANCH  12  15
ATOM     15  C   SER A   2      71.234  -8.017  -8.744  0.00  0.00    +0.165 C 
BRANCH  15  16
ATOM     16  O   SER A   2      70.346  -9.090  -8.970  0.00  0.00    -0.380 OA
ATOM     17  H   SER A   2      69.623  -8.796  -9.579  0.00  0.00    +0.211 HD
ENDBRANCH  15  16
ENDBRANCH  12  15
ENDBRANCH   2  12
TORSDOF 8
REMARK  Name = ../refined-set-2016/1rjk/1rjk_pocket.pdb
REMARK  292 active torsions:
REMARK  status: ('A' for Active; 'I' for Inactive)
REMARK    1  A    between atoms: _1  and  _3
REMARK    2  A    between atoms: _3  and  _4
REMARK    3  A    between atoms: _3  and  _6
REMARK    4  A    between atoms: _6  and  _7
REMARK    5  A    between atoms: _10  and  _12
REMARK    6  A    between atoms: _12  and  _13
REMARK    7  A    between atoms: _12  and  _15
REMARK    8  A    between atoms: _15  and  _16
REMARK    9  A    between atoms: _21  and  _22
REMARK   10  A    between atoms: _24  and  _26
REMARK   11  A    between atoms: _26  and  _27
REMARK   12  A    between atoms: _26  and  _29
REMARK   13  A    between atoms: _29  and  _30
REMARK   14  A    between atoms: _34  and  _35
REMARK   15  A    between atoms: _40  and  _42
REMARK   16  A    between atoms: _42  and  _43
REMARK   17  A    between atoms: _42  and  _45
REMARK   18  A    between atoms: _45  and  _46
REMARK   19  A    between atoms: _51  and  _52
REMARK   20  A    between atoms: _54  and  _56
REMARK   21  A    between atoms: _56  and  _57
REMARK   22  A    between atoms: _56  and  _59
REMARK   23  A    between atoms: _59  and  _60
REMARK   24  A    between atoms: _66  and  _68
REMARK   25  A    between atoms: _68  and  _69
REMARK   26  A    between atoms: _68  and  _71
REMARK   27  A    between atoms: _71  and  _72
REMARK   28  A    between atoms: _78  and  _80
REMARK   29  A    between atoms: _80  and  _81
REMARK   30  A    between atoms: _80  and  _83
REMARK   31  A    between atoms: _83  and  _84
REMARK   32  A    between atoms: _84  and  _85
REMARK   33  A    between atoms: _85  and  _86
REMARK   34  A    between atoms: _95  and  _97
REMARK   35  A    between atoms: _97  and  _98
REMARK   36  A    between atoms: _97  and  _100
REMARK   37  A    between atoms: _100  and  _101
REMARK   38  A    between atoms: _104  and  _106
REMARK   39  A    between atoms: _106  and  _107
REMARK   40  A    between atoms: _106  and  _109
REMARK   41  A    between atoms: _109  and  _110
REMARK   42  A    between atoms: _110  and  _111
REMARK   43  A    between atoms: _113  and  _115
REMARK   44  A    between atoms: _115  and  _116
REMARK   45  A    between atoms: _115  and  _118
REMARK   46  A    between atoms: _118  and  _119
REMARK   47  A    between atoms: _123  and  _124
REMARK   48  A    between atoms: _129  and  _131
REMARK   49  A    between atoms: _131  and  _132
REMARK   50  A    between atoms: _131  and  _134
REMARK   51  A    between atoms: _134  and  _135
REMARK   52  A    between atoms: _140  and  _142
REMARK   53  A    between atoms: _142  and  _143
REMARK   54  A    between atoms: _142  and  _145
REMARK   55  A    between atoms: _145  and  _146
REMARK   56  A    between atoms: _149  and  _151
REMARK   57  A    between atoms: _151  and  _152
REMARK   58  A    between atoms: _155  and  _157
REMARK   59  A    between atoms: _157  and  _158
REMARK   60  A    between atoms: _157  and  _160
REMARK   61  A    between atoms: _160  and  _161
REMARK   62  A    between atoms: _164  and  _166
REMARK   63  A    between atoms: _166  and  _167
REMARK   64  A    between atoms: _166  and  _169
REMARK   65  A    between atoms: _169  and  _170
REMARK   66  A    between atoms: _173  and  _175
REMARK   67  A    between atoms: _175  and  _176
REMARK   68  A    between atoms: _175  and  _178
REMARK   69  A    between atoms: _181  and  _183
REMARK   70  A    between atoms: _183  and  _184
REMARK   71  A    between atoms: _183  and  _186
REMARK   72  A    between atoms: _186  and  _187
REMARK   73  A    between atoms: _189  and  _191
REMARK   74  A    between atoms: _191  and  _192
REMARK   75  A    between atoms: _191  and  _194
REMARK   76  A    between atoms: _194  and  _195
REMARK   77  A    between atoms: _200  and  _201
REMARK   78  A    between atoms: _203  and  _205
REMARK   79  A    between atoms: _205  and  _206
REMARK   80  A    between atoms: _205  and  _208
REMARK   81  A    between atoms: _208  and  _209
REMARK   82  A    between atoms: _211  and  _213
REMARK   83  A    between atoms: _213  and  _214
REMARK   84  A    between atoms: _213  and  _216
REMARK   85  A    between atoms: _216  and  _217
REMARK   86  A    between atoms: _220  and  _222
REMARK   87  A    between atoms: _222  and  _223
REMARK   88  A    between atoms: _222  and  _225
REMARK   89  A    between atoms: _225  and  _226
REMARK   90  A    between atoms: _226  and  _227
REMARK   91  A    between atoms: _227  and  _228
REMARK   92  A    between atoms: _228  and  _229
REMARK   93  A    between atoms: _233  and  _235
REMARK   94  A    between atoms: _235  and  _236
REMARK   95  A    between atoms: _235  and  _238
REMARK   96  A    between atoms: _241  and  _243
REMARK   97  A    between atoms: _243  and  _244
REMARK   98  A    between atoms: _247  and  _249
REMARK   99  A    between atoms: _249  and  _250
REMARK  100  A    between atoms: _249  and  _252
REMARK  101  A    between atoms: _252  and  _253
REMARK  102  A    between atoms: _256  and  _258
REMARK  103  A    between atoms: _258  and  _259
REMARK  104  A    between atoms: _258  and  _261
REMARK  105  A    between atoms: _261  and  _262
REMARK  106  A    between atoms: _262  and  _263
REMARK  107  A    between atoms: _266  and  _268
REMARK  108  A    between atoms: _268  and  _269
REMARK  109  A    between atoms: _268  and  _271
REMARK  110  A    between atoms: _274  and  _276
REMARK  111  A    between atoms: _276  and  _277
REMARK  112  A    between atoms: _276  and  _279
REMARK  113  A    between atoms: _279  and  _280
REMARK  114  A    between atoms: _283  and  _285
REMARK  115  A    between atoms: _285  and  _286
REMARK  116  A    between atoms: _285  and  _288
REMARK  117  A    between atoms: _288  and  _289
REMARK  118  A    between atoms: _289  and  _290
REMARK  119  A    between atoms: _292  and  _294
REMARK  120  A    between atoms: _294  and  _295
REMARK  121  A    between atoms: _294  and  _297
REMARK  122  A    between atoms: _297  and  _298
REMARK  123  A    between atoms: _301  and  _303
REMARK  124  A    between atoms: _303  and  _304
REMARK  125  A    between atoms: _303  and  _306
REMARK  126  A    between atoms: _306  and  _307
REMARK  127  A    between atoms: _307  and  _308
REMARK  128  A    between atoms: _308  and  _309
REMARK  129  A    between atoms: _318  and  _320
REMARK  130  A    between atoms: _320  and  _321
REMARK  131  A    between atoms: _320  and  _323
REMARK  132  A    between atoms: _323  and  _324
REMARK  133  A    between atoms: _326  and  _328
REMARK  134  A    between atoms: _328  and  _329
REMARK  135  A    between atoms: _328  and  _331
REMARK  136  A    between atoms: _331  and  _332
REMARK  137  A    between atoms: _337  and  _339
REMARK  138  A    between atoms: _339  and  _340
REMARK  139  A    between atoms: _339  and  _342
REMARK  140  A    between atoms: _342  and  _343
REMARK  141  A    between atoms: _343  and  _344
REMARK  142  A    between atoms: _349  and  _351
REMARK  143  A    between atoms: _351  and  _352
REMARK  144  A    between atoms: _351  and  _354
REMARK  145  A    between atoms: _354  and  _355
REMARK  146  A    between atoms: _357  and  _359
REMARK  147  A    between atoms: _359  and  _360
REMARK  148  A    between atoms: _359  and  _362
REMARK  149  A    between atoms: _362  and  _363
REMARK  150  A    between atoms: _369  and  _371
REMARK  151  A    between atoms: _371  and  _372
REMARK  152  A    between atoms: _371  and  _374
REMARK  153  A    between atoms: _374  and  _375
REMARK  154  A    between atoms: _377  and  _379
REMARK  155  A    between atoms: _379  and  _380
REMARK  156  A    between atoms: _379  and  _382
REMARK  157  A    between atoms: _382  and  _383
REMARK  158  A    between atoms: _393  and  _395
REMARK  159  A    between atoms: _395  and  _396
REMARK  160  A    between atoms: _395  and  _398
REMARK  161  A    between atoms: _398  and  _399
REMARK  162  A    between atoms: _402  and  _404
REMARK  163  A    between atoms: _404  and  _405
REMARK  164  A    between atoms: _404  and  _407
REMARK  165  A    between atoms: _409  and  _411
REMARK  166  A    between atoms: _411  and  _412
REMARK  167  A    between atoms: _411  and  _414
REMARK  168  A    between atoms: _414  and  _415
REMARK  169  A    between atoms: _420  and  _421
REMARK  170  A    between atoms: _423  and  _425
REMARK  171  A    between atoms: _425  and  _426
REMARK  172  A    between atoms: _425  and  _428
REMARK  173  A    between atoms: _428  and  _429
REMARK  174  A    between atoms: _429  and  _430
REMARK  175  A    between atoms: _430  and  _431
REMARK  176  A    between atoms: _431  and  _432
REMARK  177  A    between atoms: _436  and  _438
REMARK  178  A    between atoms: _438  and  _439
REMARK  179  A    between atoms: _438  and  _441
REMARK  180  A    between atoms: _441  and  _442
REMARK  181  A    between atoms: _447  and  _448
REMARK  182  A    between atoms: _450  and  _452
REMARK  183  A    between atoms: _452  and  _453
REMARK  184  A    between atoms: _452  and  _455
REMARK  185  A    between atoms: _455  and  _456
REMARK  186  A    between atoms: _459  and  _461
REMARK  187  A    between atoms: _461  and  _462
REMARK  188  A    between atoms: _461  and  _464
REMARK  189  A    between atoms: _464  and  _465
REMARK  190  A    between atoms: _468  and  _470
REMARK  191  A    between atoms: _470  and  _471
REMARK  192  A    between atoms: _470  and  _473
REMARK  193  A    between atoms: _476  and  _478
REMARK  194  A    between atoms: _478  and  _479
REMARK  195  A    between atoms: _478  and  _481
REMARK  196  A    between atoms: _481  and  _482
REMARK  197  A    between atoms: _484  and  _486
REMARK  198  A    between atoms: _486  and  _487
REMARK  199  A    between atoms: _490  and  _492
REMARK  200  A    between atoms: _492  and  _493
REMARK  201  A    between atoms: _495  and  _497
REMARK  202  A    between atoms: _497  and  _498
REMARK  203  A    between atoms: _497  and  _500
REMARK  204  A    between atoms: _500  and  _501
REMARK  205  A    between atoms: _506  and  _508
REMARK  206  A    between atoms: _508  and  _509
REMARK  207  A    between atoms: _508  and  _511
REMARK  208  A    between atoms: _511  and  _512
REMARK  209  A    between atoms: _515  and  _517
REMARK  210  A    between atoms: _517  and  _518
REMARK  211  A    between atoms: _517  and  _520
REMARK  212  A    between atoms: _520  and  _521
REMARK  213  A    between atoms: _524  and  _526
REMARK  214  A    between atoms: _526  and  _527
REMARK  215  A    between atoms: _526  and  _529
REMARK  216  A    between atoms: _529  and  _530
REMARK  217  A    between atoms: _533  and  _535
REMARK  218  A    between atoms: _535  and  _536
REMARK  219  A    between atoms: _535  and  _538
REMARK  220  A    between atoms: _538  and  _539
REMARK  221  A    between atoms: _545  and  _547
REMARK  222  A    between atoms: _547  and  _548
REMARK  223  A    between atoms: _547  and  _550
REMARK  224  A    between atoms: _550  and  _551
REMARK  225  A    between atoms: _551  and  _552
REMARK  226  A    between atoms: _557  and  _559
REMARK  227  A    between atoms: _559  and  _560
REMARK  228  A    between atoms: _559  and  _562
REMARK  229  A    between atoms: _562  and  _563
REMARK  230  A    between atoms: _566  and  _568
REMARK  231  A    between atoms: _568  and  _569
REMARK  232  A    between atoms: _568  and  _571
REMARK  233  A    between atoms: _571  and  _572
REMARK  234  A    between atoms: _572  and  _573
REMARK  235  A    between atoms: _576  and  _578
REMARK  236  A    between atoms: _578  and  _579
REMARK  237  A    between atoms: _578  and  _581
REMARK  238  A    between atoms: _581  and  _582
REMARK  239  A    between atoms: _587  and  _589
REMARK  240  A    between atoms: _589  and  _590
REMARK  241  A    between atoms: _589  and  _592
REMARK  242  A    between atoms: _592  and  _593
REMARK  243  A    between atoms: _595  and  _597
REMARK  244  A    between atoms: _597  and  _598
REMARK  245  A    between atoms: _597  and  _600
REMARK  246  A    between atoms: _600  and  _601
REMARK  247  A    between atoms: _601  and  _602
REMARK  248  A    between atoms: _607  and  _609
REMARK  249  A    between atoms: _609  and  _610
REMARK  250  A    between atoms: _609  and  _612
REMARK  251  A    between atoms: _612  and  _613
REMARK  252  A    between atoms: _618  and  _619
REMARK  253  A    between atoms: _621  and  _623
REMARK  254  A    between atoms: _623  and  _624
REMARK  255  A    between atoms: _623  and  _626
REMARK  256  A    between atoms: _626  and  _627
REMARK  257  A    between atoms: _627  and  _628
REMARK  258  A    between atoms: _628  and  _629
REMARK  259  A    between atoms: _638  and  _640
REMARK  260  A    between atoms: _640  and  _641
REMARK  261  A    between atoms: _640  and  _643
REMARK  262  A    between atoms: _643  and  _644
REMARK  263  A    between atoms: _647  and  _649
REMARK  264  A    between atoms: _649  and  _650
REMARK  265  A    between atoms: _649  and  _652
REMARK  266  A    between atoms: _652  and  _653
REMARK  267  A    between atoms: _655  and  _657
REMARK  268  A    between atoms: _657  and  _658
REMARK  269  A    between atoms: _657  and  _660
REMARK  270  A    between atoms: _660  and  _661
REMARK  271  A    between atoms: _666  and  _668
REMARK  272  A    between atoms: _668  and  _669
REMARK  273  A    between atoms: _668  and  _671
REMARK  274  A    between atoms: _671  and  _672
REMARK  275  A    between atoms: _672  and  _673
REMARK  276  A    between atoms: _673  and  _674
REMARK  277  A    between atoms: _674  and  _675
REMARK  278  A    between atoms: _679  and  _681
REMARK  279  A    between atoms: _681  and  _682
REMARK  280  A    between atoms: _681  and  _684
REMARK  281  A    between atoms: _684  and  _685
REMARK  282  A    between atoms: _688  and  _690
REMARK  283  A    between atoms: _690  and  _691
REMARK  284  A    between atoms: _690  and  _693
REMARK  285  A    between atoms: _693  and  _694
REMARK  286  A    between atoms: _697  and  _699
REMARK  287  A    between atoms: _699  and  _700
REMARK  288  A    between atoms: _699  and  _702
REMARK  289  A    between atoms: _705  and  _707
REMARK  290  A    between atoms: _707  and  _708
REMARK  291  A    between atoms: _707  and  _710
REMARK  292  A    between atoms: _710  and  _711
REMARK                            x       y       z     vdW  Elec       q    Type
REMARK                         _______ _______ _______ _____ _____    ______ ____
ROOT
ATOM      1  CB  ASN A   1      74.259  -3.421 -11.575  0.00  0.00    +0.110 C 
ENDROOT
BRANCH   1   2
ATOM      2  CG  ASN A   1      74.198  -2.901 -12.970  0.00  0.00    +0.221 C 
ATOM      3  OD1 ASN A   1      74.888  -1.942 -13.330  0.00  0.00    -0.275 OA
ATOM      4  ND2 ASN A   1      73.323  -3.503 -13.771  0.00  0.00    -0.329 N 
ATOM      5 HD21 ASN A   1      72.765  -4.308 -13.420  0.00  0.00    +0.145 HD
ATOM      6 HD22 ASN A   1      73.197  -3.169 -14.748  0.00  0.00    +0.145 HD
ENDBRANCH   1   2
BRANCH   1   7
ATOM      7  CA  ASN A   1      75.577  -3.085 -10.861  0.00  0.00    +0.142 C 
BRANCH   7   8
ATOM      8  N   ASN A   1      76.723  -3.727 -11.494  0.00  0.00    -0.239 NA
ATOM      9  H   ASN A   1      76.577  -4.575 -12.078  0.00  0.00    +0.142 HD
ENDBRANCH   7   8
BRANCH   7  10
ATOM     10  C   ASN A   1      75.440  -3.584  -9.452  0.00  0.00    +0.225 C 
ATOM     11  O   ASN A   1      75.118  -2.831  -8.554  0.00  0.00    -0.287 OA
ENDBRANCH   7  10
ENDBRANCH   1   7
TORSDOF 4
REMARK  Name = ../refined-set-2016/1rjk/1rjk_pocket.pdb
REMARK  292 active torsions:
REMARK  status: ('A' for Active; 'I' for Inactive)
REMARK    1  A    between atoms: _1  and  _3
REMARK    2  A    between atoms: _3  and  _4
REMARK    3  A    between atoms: _3  and  _6
REMARK    4  A    between atoms: _6  and  _7
REMARK    5  A    between atoms: _10  and  _12
REMARK    6  A    between atoms: _12  and  _13
REMARK    7  A    between atoms: _12  and  _15
REMARK    8  A    between atoms: _15  and  _16
REMARK    9  A    between atoms: _21  and  _22
REMARK   10  A    between atoms: _24  and  _26
REMARK   11  A    between atoms: _26  and  _27
REMARK   12  A    between atoms: _26  and  _29
REMARK   13  A    between atoms: _29  and  _30
REMARK   14  A    between atoms: _34  and  _35
REMARK   15  A    between atoms: _40  and  _42
REMARK   16  A    between atoms: _42  and  _43
REMARK   17  A    between atoms: _42  and  _45
REMARK   18  A    between atoms: _45  and  _46
REMARK   19  A    between atoms: _51  and  _52
REMARK   20  A    between atoms: _54  and  _56
REMARK   21  A    between atoms: _56  and  _57
REMARK   22  A    between atoms: _56  and  _59
REMARK   23  A    between atoms: _59  and  _60
REMARK   24  A    between atoms: _66  and  _68
REMARK   25  A    between atoms: _68  and  _69
REMARK   26  A    between atoms: _68  and  _71
REMARK   27  A    between atoms: _71  and  _72
REMARK   28  A    between atoms: _78  and  _80
REMARK   29  A    between atoms: _80  and  _81
REMARK   30  A    between atoms: _80  and  _83
REMARK   31  A    between atoms: _83  and  _84
REMARK   32  A    between atoms: _84  and  _85
REMARK   33  A    between atoms: _85  and  _86
REMARK   34  A    between atoms: _95  and  _97
REMARK   35  A    between atoms: _97  and  _98
REMARK   36  A    between atoms: _97  and  _100
REMARK   37  A    between atoms: _100  and  _101
REMARK   38  A    between atoms: _104  and  _106
REMARK   39  A    between atoms: _106  and  _107
REMARK   40  A    between atoms: _106  and  _109
REMARK   41  A    between atoms: _109  and  _110
REMARK   42  A    between atoms: _110  and  _111
REMARK   43  A    between atoms: _113  and  _115
REMARK   44  A    between atoms: _115  and  _116
REMARK   45  A    between atoms: _115  and  _118
REMARK   46  A    between atoms: _118  and  _119
REMARK   47  A    between atoms: _123  and  _124
REMARK   48  A    between atoms: _129  and  _131
REMARK   49  A    between atoms: _131  and  _132
REMARK   50  A    between atoms: _131  and  _134
REMARK   51  A    between atoms: _134  and  _135
REMARK   52  A    between atoms: _140  and  _142
REMARK   53  A    between atoms: _142  and  _143
REMARK   54  A    between atoms: _142  and  _145
REMARK   55  A    between atoms: _145  and  _146
REMARK   56  A    between atoms: _149  and  _151
REMARK   57  A    between atoms: _151  and  _152
REMARK   58  A    between atoms: _155  and  _157
REMARK   59  A    between atoms: _157  and  _158
REMARK   60  A    between atoms: _157  and  _160
REMARK   61  A    between atoms: _160  and  _161
REMARK   62  A    between atoms: _164  and  _166
REMARK   63  A    between atoms: _166  and  _167
REMARK   64  A    between atoms: _166  and  _169
REMARK   65  A    between atoms: _169  and  _170
REMARK   66  A    between atoms: _173  and  _175
REMARK   67  A    between atoms: _175  and  _176
REMARK   68  A    between atoms: _175  and  _178
REMARK   69  A    between atoms: _181  and  _183
REMARK   70  A    between atoms: _183  and  _184
REMARK   71  A    between atoms: _183  and  _186
REMARK   72  A    between atoms: _186  and  _187
REMARK   73  A    between atoms: _189  and  _191
REMARK   74  A    between atoms: _191  and  _192
REMARK   75  A    between atoms: _191  and  _194
REMARK   76  A    between atoms: _194  and  _195
REMARK   77  A    between atoms: _200  and  _201
REMARK   78  A    between atoms: _203  and  _205
REMARK   79  A    between atoms: _205  and  _206
REMARK   80  A    between atoms: _205  and  _208
REMARK   81  A    between atoms: _208  and  _209
REMARK   82  A    between atoms: _211  and  _213
REMARK   83  A    between atoms: _213  and  _214
REMARK   84  A    between atoms: _213  and  _216
REMARK   85  A    between atoms: _216  and  _217
REMARK   86  A    between atoms: _220  and  _222
REMARK   87  A    between atoms: _222  and  _223
REMARK   88  A    between atoms: _222  and  _225
REMARK   89  A    between atoms: _225  and  _226
REMARK   90  A    between atoms: _226  and  _227
REMARK   91  A    between atoms: _227  and  _228
REMARK   92  A    between atoms: _228  and  _229
REMARK   93  A    between atoms: _233  and  _235
REMARK   94  A    between atoms: _235  and  _236
REMARK   95  A    between atoms: _235  and  _238
REMARK   96  A    between atoms: _241  and  _243
REMARK   97  A    between atoms: _243  and  _244
REMARK   98  A    between atoms: _247  and  _249
REMARK   99  A    between atoms: _249  and  _250
REMARK  100  A    between atoms: _249  and  _252
REMARK  101  A    between atoms: _252  and  _253
REMARK  102  A    between atoms: _256  and  _258
REMARK  103  A    between atoms: _258  and  _259
REMARK  104  A    between atoms: _258  and  _261
REMARK  105  A    between atoms: _261  and  _262
REMARK  106  A    between atoms: _262  and  _263
REMARK  107  A    between atoms: _266  and  _268
REMARK  108  A    between atoms: _268  and  _269
REMARK  109  A    between atoms: _268  and  _271
REMARK  110  A    between atoms: _274  and  _276
REMARK  111  A    between atoms: _276  and  _277
REMARK  112  A    between atoms: _276  and  _279
REMARK  113  A    between atoms: _279  and  _280
REMARK  114  A    between atoms: _283  and  _285
REMARK  115  A    between atoms: _285  and  _286
REMARK  116  A    between atoms: _285  and  _288
REMARK  117  A    between atoms: _288  and  _289
REMARK  118  A    between atoms: _289  and  _290
REMARK  119  A    between atoms: _292  and  _294
REMARK  120  A    between atoms: _294  and  _295
REMARK  121  A    between atoms: _294  and  _297
REMARK  122  A    between atoms: _297  and  _298
REMARK  123  A    between atoms: _301  and  _303
REMARK  124  A    between atoms: _303  and  _304
REMARK  125  A    between atoms: _303  and  _306
REMARK  126  A    between atoms: _306  and  _307
REMARK  127  A    between atoms: _307  and  _308
REMARK  128  A    between atoms: _308  and  _309
REMARK  129  A    between atoms: _318  and  _320
REMARK  130  A    between atoms: _320  and  _321
REMARK  131  A    between atoms: _320  and  _323
REMARK  132  A    between atoms: _323  and  _324
REMARK  133  A    between atoms: _326  and  _328
REMARK  134  A    between atoms: _328  and  _329
REMARK  135  A    between atoms: _328  and  _331
REMARK  136  A    between atoms: _331  and  _332
REMARK  137  A    between atoms: _337  and  _339
REMARK  138  A    between atoms: _339  and  _340
REMARK  139  A    between atoms: _339  and  _342
REMARK  140  A    between atoms: _342  and  _343
REMARK  141  A    between atoms: _343  and  _344
REMARK  142  A    between atoms: _349  and  _351
REMARK  143  A    between atoms: _351  and  _352
REMARK  144  A    between atoms: _351  and  _354
REMARK  145  A    between atoms: _354  and  _355
REMARK  146  A    between atoms: _357  and  _359
REMARK  147  A    between atoms: _359  and  _360
REMARK  148  A    between atoms: _359  and  _362
REMARK  149  A    between atoms: _362  and  _363
REMARK  150  A    between atoms: _369  and  _371
REMARK  151  A    between atoms: _371  and  _372
REMARK  152  A    between atoms: _371  and  _374
REMARK  153  A    between atoms: _374  and  _375
REMARK  154  A    between atoms: _377  and  _379
REMARK  155  A    between atoms: _379  and  _380
REMARK  156  A    between atoms: _379  and  _382
REMARK  157  A    between atoms: _382  and  _383
REMARK  158  A    between atoms: _393  and  _395
REMARK  159  A    between atoms: _395  and  _396
REMARK  160  A    between atoms: _395  and  _398
REMARK  161  A    between atoms: _398  and  _399
REMARK  162  A    between atoms: _402  and  _404
REMARK  163  A    between atoms: _404  and  _405
REMARK  164  A    between atoms: _404  and  _407
REMARK  165  A    between atoms: _409  and  _411
REMARK  166  A    between atoms: _411  and  _412
REMARK  167  A    between atoms: _411  and  _414
REMARK  168  A    between atoms: _414  and  _415
REMARK  169  A    between atoms: _420  and  _421
REMARK  170  A    between atoms: _423  and  _425
REMARK  171  A    between atoms: _425  and  _426
REMARK  172  A    between atoms: _425  and  _428
REMARK  173  A    between atoms: _428  and  _429
REMARK  174  A    between atoms: _429  and  _430
REMARK  175  A    between atoms: _430  and  _431
REMARK  176  A    between atoms: _431  and  _432
REMARK  177  A    between atoms: _436  and  _438
REMARK  178  A    between atoms: _438  and  _439
REMARK  179  A    between atoms: _438  and  _441
REMARK  180  A    between atoms: _441  and  _442
REMARK  181  A    between atoms: _447  and  _448
REMARK  182  A    between atoms: _450  and  _452
REMARK  183  A    between atoms: _452  and  _453
REMARK  184  A    between atoms: _452  and  _455
REMARK  185  A    between atoms: _455  and  _456
REMARK  186  A    between atoms: _459  and  _461
REMARK  187  A    between atoms: _461  and  _462
REMARK  188  A    between atoms: _461  and  _464
REMARK  189  A    between atoms: _464  and  _465
REMARK  190  A    between atoms: _468  and  _470
REMARK  191  A    between atoms: _470  and  _471
REMARK  192  A    between atoms: _470  and  _473
REMARK  193  A    between atoms: _476  and  _478
REMARK  194  A    between atoms: _478  and  _479
REMARK  195  A    between atoms: _478  and  _481
REMARK  196  A    between atoms: _481  and  _482
REMARK  197  A    between atoms: _484  and  _486
REMARK  198  A    between atoms: _486  and  _487
REMARK  199  A    between atoms: _490  and  _492
REMARK  200  A    between atoms: _492  and  _493
REMARK  201  A    between atoms: _495  and  _497
REMARK  202  A    between atoms: _497  and  _498
REMARK  203  A    between atoms: _497  and  _500
REMARK  204  A    between atoms: _500  and  _501
REMARK  205  A    between atoms: _506  and  _508
REMARK  206  A    between atoms: _508  and  _509
REMARK  207  A    between atoms: _508  and  _511
REMARK  208  A    between atoms: _511  and  _512
REMARK  209  A    between atoms: _515  and  _517
REMARK  210  A    between atoms: _517  and  _518
REMARK  211  A    between atoms: _517  and  _520
REMARK  212  A    between atoms: _520  and  _521
REMARK  213  A    between atoms: _524  and  _526
REMARK  214  A    between atoms: _526  and  _527
REMARK  215  A    between atoms: _526  and  _529
REMARK  216  A    between atoms: _529  and  _530
REMARK  217  A    between atoms: _533  and  _535
REMARK  218  A    between atoms: _535  and  _536
REMARK  219  A    between atoms: _535  and  _538
REMARK  220  A    between atoms: _538  and  _539
REMARK  221  A    between atoms: _545  and  _547
REMARK  222  A    between atoms: _547  and  _548
REMARK  223  A    between atoms: _547  and  _550
REMARK  224  A    between atoms: _550  and  _551
REMARK  225  A    between atoms: _551  and  _552
REMARK  226  A    between atoms: _557  and  _559
REMARK  227  A    between atoms: _559  and  _560
REMARK  228  A    between atoms: _559  and  _562
REMARK  229  A    between atoms: _562  and  _563
REMARK  230  A    between atoms: _566  and  _568
REMARK  231  A    between atoms: _568  and  _569
REMARK  232  A    between atoms: _568  and  _571
REMARK  233  A    between atoms: _571  and  _572
REMARK  234  A    between atoms: _572  and  _573
REMARK  235  A    between atoms: _576  and  _578
REMARK  236  A    between atoms: _578  and  _579
REMARK  237  A    between atoms: _578  and  _581
REMARK  238  A    between atoms: _581  and  _582
REMARK  239  A    between atoms: _587  and  _589
REMARK  240  A    between atoms: _589  and  _590
REMARK  241  A    between atoms: _589  and  _592
REMARK  242  A    between atoms: _592  and  _593
REMARK  243  A    between atoms: _595  and  _597
REMARK  244  A    between atoms: _597  and  _598
REMARK  245  A    between atoms: _597  and  _600
REMARK  246  A    between atoms: _600  and  _601
REMARK  247  A    between atoms: _601  and  _602
REMARK  248  A    between atoms: _607  and  _609
REMARK  249  A    between atoms: _609  and  _610
REMARK  250  A    between atoms: _609  and  _612
REMARK  251  A    between atoms: _612  and  _613
REMARK  252  A    between atoms: _618  and  _619
REMARK  253  A    between atoms: _621  and  _623
REMARK  254  A    between atoms: _623  and  _624
REMARK  255  A    between atoms: _623  and  _626
REMARK  256  A    between atoms: _626  and  _627
REMARK  257  A    between atoms: _627  and  _628
REMARK  258  A    between atoms: _628  and  _629
REMARK  259  A    between atoms: _638  and  _640
REMARK  260  A    between atoms: _640  and  _641
REMARK  261  A    between atoms: _640  and  _643
REMARK  262  A    between atoms: _643  and  _644
REMARK  263  A    between atoms: _647  and  _649
REMARK  264  A    between atoms: _649  and  _650
REMARK  265  A    between atoms: _649  and  _652
REMARK  266  A    between atoms: _652  and  _653
REMARK  267  A    between atoms: _655  and  _657
REMARK  268  A    between atoms: _657  and  _658
REMARK  269  A    between atoms: _657  and  _660
REMARK  270  A    between atoms: _660  and  _661
REMARK  271  A    between atoms: _666  and  _668
REMARK  272  A    between atoms: _668  and  _669
REMARK  273  A    between atoms: _668  and  _671
REMARK  274  A    between atoms: _671  and  _672
REMARK  275  A    between atoms: _672  and  _673
REMARK  276  A    between atoms: _673  and  _674
REMARK  277  A    between atoms: _674  and  _675
REMARK  278  A    between atoms: _679  and  _681
REMARK  279  A    between atoms: _681  and  _682
REMARK  280  A    between atoms: _681  and  _684
REMARK  281  A    between atoms: _684  and  _685
REMARK  282  A    between atoms: _688  and  _690
REMARK  283  A    between atoms: _690  and  _691
REMARK  284  A    between atoms: _690  and  _693
REMARK  285  A    between atoms: _693  and  _694
REMARK  286  A    between atoms: _697  and  _699
REMARK  287  A    between atoms: _699  and  _700
REMARK  288  A    between atoms: _699  and  _702
REMARK  289  A    between atoms: _705  and  _707
REMARK  290  A    between atoms: _707  and  _708
REMARK  291  A    between atoms: _707  and  _710
REMARK  292  A    between atoms: _710  and  _711
REMARK                            x       y       z     vdW  Elec       q    Type
REMARK                         _______ _______ _______ _____ _____    ______ ____
ROOT
ATOM      1  CA  LEU A   2      74.046  -2.164  -4.118  0.00  0.00    +0.149 C 
ENDROOT
BRANCH   1   4
ATOM      2  C   LYS A   1      75.496  -0.651  -5.353  0.00  0.00    +0.238 C 
ATOM      3  O   LYS A   1      75.000   0.355  -4.799  0.00  0.00    -0.274 OA
ATOM      4  N   LEU A   2      75.123  -1.888  -5.056  0.00  0.00    -0.297 N 
ATOM      5  H   LEU A   2      75.615  -2.685  -5.507  0.00  0.00    +0.150 HD
BRANCH   2   6
ATOM      6  CA  LYS A   1      76.600  -0.510  -6.413  0.00  0.00    +0.145 C 
BRANCH   6   7
ATOM      7  N   LYS A   1      77.174  -1.778  -6.854  0.00  0.00    -0.238 NA
ATOM      8  H   LYS A   1      76.806  -2.212  -7.725  0.00  0.00    +0.142 HD
ENDBRANCH   6   7
BRANCH   6   9
ATOM      9  CB  LYS A   1      76.039   0.279  -7.608  0.00  0.00    +0.026 C 
BRANCH   9  10
ATOM     10  CG  LYS A   1      77.005   0.511  -8.801  0.00  0.00    -0.000 C 
BRANCH  10  11
ATOM     11  CD  LYS A   1      78.202   1.356  -8.407  0.00  0.00    -0.024 C 
BRANCH  11  12
ATOM     12  CE  LYS A   1      78.957   1.861  -9.648  0.00  0.00    -0.086 C 
BRANCH  12  13
ATOM     13  NZ  LYS A   1      80.181   1.056  -9.915  0.00  0.00    +0.380 N 
ATOM     14  HZ1 LYS A   1      80.819   1.116  -9.096  0.00  0.00    -0.089 HD
ATOM     15  HZ2 LYS A   1      79.914   0.064 -10.076  0.00  0.00    -0.089 HD
ATOM     16  HZ3 LYS A   1      80.662   1.428 -10.759  0.00  0.00    -0.089 HD
ENDBRANCH  12  13
ENDBRANCH  11  12
ENDBRANCH  10  11
ENDBRANCH   9  10
ENDBRANCH   6   9
ENDBRANCH   2   6
ENDBRANCH   1   4
BRANCH   1  17
ATOM     17  C   LEU A   2      74.607  -2.114  -2.711  0.00  0.00    +0.241 C 
ATOM     18  N   THR A   3      73.785  -2.425  -1.706  0.00  0.00    -0.296 N 
ATOM     19  H   THR A   3      72.773  -2.574  -1.895  0.00  0.00    +0.150 HD
ATOM     20  O   LEU A   2      75.773  -1.801  -2.533  0.00  0.00    -0.273 OA
BRANCH  18  21
ATOM     21  CA  THR A   3      74.292  -2.557  -0.348  0.00  0.00    +0.164 C 
BRANCH  21  22
ATOM     22  CB  THR A   3      73.468  -1.736   0.629  0.00  0.00    +0.136 C 
ATOM     23  CG2 THR A   3      73.232  -0.317   0.068  0.00  0.00    +0.034 C 
BRANCH  22  24
ATOM     24  OG1 THR A   3      72.167  -2.342   0.760  0.00  0.00    -0.382 OA
ATOM     25  HG1 THR A   3      71.621  -1.814   1.395  0.00  0.00    +0.210 HD
ENDBRANCH  22  24
ENDBRANCH  21  22
BRANCH  21  26
ATOM     26  C   THR A   3      74.201  -4.014   0.047  0.00  0.00    +0.229 C 
ATOM     27  O   THR A   3      73.479  -4.767  -0.563  0.00  0.00    -0.286 OA
ENDBRANCH  21  26
ENDBRANCH  18  21
ENDBRANCH   1  17
BRANCH   1  28
ATOM     28  CB  LEU A   2      73.423  -3.551  -4.427  0.00  0.00    +0.029 C 
BRANCH  28  29
ATOM     29  CG  LEU A   2      72.740  -3.585  -5.817  0.00  0.00    +0.002 C 
ATOM     30  CD2 LEU A   2      71.682  -2.449  -5.953  0.00  0.00    +0.000 C 
ATOM     31  CD1 LEU A   2      72.129  -4.937  -6.156  0.00  0.00    +0.000 C 
ENDBRANCH  28  29
ENDBRANCH   1  28
TORSDOF 15
REMARK  Name = ../refined-set-2016/1rjk/1rjk_pocket.pdb
REMARK  292 active torsions:
REMARK  status: ('A' for Active; 'I' for Inactive)
REMARK    1  A    between atoms: _1  and  _3
REMARK    2  A    between atoms: _3  and  _4
REMARK    3  A    between atoms: _3  and  _6
REMARK    4  A    between atoms: _6  and  _7
REMARK    5  A    between atoms: _10  and  _12
REMARK    6  A    between atoms: _12  and  _13
REMARK    7  A    between atoms: _12  and  _15
REMARK    8  A    between atoms: _15  and  _16
REMARK    9  A    between atoms: _21  and  _22
REMARK   10  A    between atoms: _24  and  _26
REMARK   11  A    between atoms: _26  and  _27
REMARK   12  A    between atoms: _26  and  _29
REMARK   13  A    between atoms: _29  and  _30
REMARK   14  A    between atoms: _34  and  _35
REMARK   15  A    between atoms: _40  and  _42
REMARK   16  A    between atoms: _42  and  _43
REMARK   17  A    between atoms: _42  and  _45
REMARK   18  A    between atoms: _45  and  _46
REMARK   19  A    between atoms: _51  and  _52
REMARK   20  A    between atoms: _54  and  _56
REMARK   21  A    between atoms: _56  and  _57
REMARK   22  A    between atoms: _56  and  _59
REMARK   23  A    between atoms: _59  and  _60
REMARK   24  A    between atoms: _66  and  _68
REMARK   25  A    between atoms: _68  and  _69
REMARK   26  A    between atoms: _68  and  _71
REMARK   27  A    between atoms: _71  and  _72
REMARK   28  A    between atoms: _78  and  _80
REMARK   29  A    between atoms: _80  and  _81
REMARK   30  A    between atoms: _80  and  _83
REMARK   31  A    between atoms: _83  and  _84
REMARK   32  A    between atoms: _84  and  _85
REMARK   33  A    between atoms: _85  and  _86
REMARK   34  A    between atoms: _95  and  _97
REMARK   35  A    between atoms: _97  and  _98
REMARK   36  A    between atoms: _97  and  _100
REMARK   37  A    between atoms: _100  and  _101
REMARK   38  A    between atoms: _104  and  _106
REMARK   39  A    between atoms: _106  and  _107
REMARK   40  A    between atoms: _106  and  _109
REMARK   41  A    between atoms: _109  and  _110
REMARK   42  A    between atoms: _110  and  _111
REMARK   43  A    between atoms: _113  and  _115
REMARK   44  A    between atoms: _115  and  _116
REMARK   45  A    between atoms: _115  and  _118
REMARK   46  A    between atoms: _118  and  _119
REMARK   47  A    between atoms: _123  and  _124
REMARK   48  A    between atoms: _129  and  _131
REMARK   49  A    between atoms: _131  and  _132
REMARK   50  A    between atoms: _131  and  _134
REMARK   51  A    between atoms: _134  and  _135
REMARK   52  A    between atoms: _140  and  _142
REMARK   53  A    between atoms: _142  and  _143
REMARK   54  A    between atoms: _142  and  _145
REMARK   55  A    between atoms: _145  and  _146
REMARK   56  A    between atoms: _149  and  _151
REMARK   57  A    between atoms: _151  and  _152
REMARK   58  A    between atoms: _155  and  _157
REMARK   59  A    between atoms: _157  and  _158
REMARK   60  A    between atoms: _157  and  _160
REMARK   61  A    between atoms: _160  and  _161
REMARK   62  A    between atoms: _164  and  _166
REMARK   63  A    between atoms: _166  and  _167
REMARK   64  A    between atoms: _166  and  _169
REMARK   65  A    between atoms: _169  and  _170
REMARK   66  A    between atoms: _173  and  _175
REMARK   67  A    between atoms: _175  and  _176
REMARK   68  A    between atoms: _175  and  _178
REMARK   69  A    between atoms: _181  and  _183
REMARK   70  A    between atoms: _183  and  _184
REMARK   71  A    between atoms: _183  and  _186
REMARK   72  A    between atoms: _186  and  _187
REMARK   73  A    between atoms: _189  and  _191
REMARK   74  A    between atoms: _191  and  _192
REMARK   75  A    between atoms: _191  and  _194
REMARK   76  A    between atoms: _194  and  _195
REMARK   77  A    between atoms: _200  and  _201
REMARK   78  A    between atoms: _203  and  _205
REMARK   79  A    between atoms: _205  and  _206
REMARK   80  A    between atoms: _205  and  _208
REMARK   81  A    between atoms: _208  and  _209
REMARK   82  A    between atoms: _211  and  _213
REMARK   83  A    between atoms: _213  and  _214
REMARK   84  A    between atoms: _213  and  _216
REMARK   85  A    between atoms: _216  and  _217
REMARK   86  A    between atoms: _220  and  _222
REMARK   87  A    between atoms: _222  and  _223
REMARK   88  A    between atoms: _222  and  _225
REMARK   89  A    between atoms: _225  and  _226
REMARK   90  A    between atoms: _226  and  _227
REMARK   91  A    between atoms: _227  and  _228
REMARK   92  A    between atoms: _228  and  _229
REMARK   93  A    between atoms: _233  and  _235
REMARK   94  A    between atoms: _235  and  _236
REMARK   95  A    between atoms: _235  and  _238
REMARK   96  A    between atoms: _241  and  _243
REMARK   97  A    between atoms: _243  and  _244
REMARK   98  A    between atoms: _247  and  _249
REMARK   99  A    between atoms: _249  and  _250
REMARK  100  A    between atoms: _249  and  _252
REMARK  101  A    between atoms: _252  and  _253
REMARK  102  A    between atoms: _256  and  _258
REMARK  103  A    between atoms: _258  and  _259
REMARK  104  A    between atoms: _258  and  _261
REMARK  105  A    between atoms: _261  and  _262
REMARK  106  A    between atoms: _262  and  _263
REMARK  107  A    between atoms: _266  and  _268
REMARK  108  A    between atoms: _268  and  _269
REMARK  109  A    between atoms: _268  and  _271
REMARK  110  A    between atoms: _274  and  _276
REMARK  111  A    between atoms: _276  and  _277
REMARK  112  A    between atoms: _276  and  _279
REMARK  113  A    between atoms: _279  and  _280
REMARK  114  A    between atoms: _283  and  _285
REMARK  115  A    between atoms: _285  and  _286
REMARK  116  A    between atoms: _285  and  _288
REMARK  117  A    between atoms: _288  and  _289
REMARK  118  A    between atoms: _289  and  _290
REMARK  119  A    between atoms: _292  and  _294
REMARK  120  A    between atoms: _294  and  _295
REMARK  121  A    between atoms: _294  and  _297
REMARK  122  A    between atoms: _297  and  _298
REMARK  123  A    between atoms: _301  and  _303
REMARK  124  A    between atoms: _303  and  _304
REMARK  125  A    between atoms: _303  and  _306
REMARK  126  A    between atoms: _306  and  _307
REMARK  127  A    between atoms: _307  and  _308
REMARK  128  A    between atoms: _308  and  _309
REMARK  129  A    between atoms: _318  and  _320
REMARK  130  A    between atoms: _320  and  _321
REMARK  131  A    between atoms: _320  and  _323
REMARK  132  A    between atoms: _323  and  _324
REMARK  133  A    between atoms: _326  and  _328
REMARK  134  A    between atoms: _328  and  _329
REMARK  135  A    between atoms: _328  and  _331
REMARK  136  A    between atoms: _331  and  _332
REMARK  137  A    between atoms: _337  and  _339
REMARK  138  A    between atoms: _339  and  _340
REMARK  139  A    between atoms: _339  and  _342
REMARK  140  A    between atoms: _342  and  _343
REMARK  141  A    between atoms: _343  and  _344
REMARK  142  A    between atoms: _349  and  _351
REMARK  143  A    between atoms: _351  and  _352
REMARK  144  A    between atoms: _351  and  _354
REMARK  145  A    between atoms: _354  and  _355
REMARK  146  A    between atoms: _357  and  _359
REMARK  147  A    between atoms: _359  and  _360
REMARK  148  A    between atoms: _359  and  _362
REMARK  149  A    between atoms: _362  and  _363
REMARK  150  A    between atoms: _369  and  _371
REMARK  151  A    between atoms: _371  and  _372
REMARK  152  A    between atoms: _371  and  _374
REMARK  153  A    between atoms: _374  and  _375
REMARK  154  A    between atoms: _377  and  _379
REMARK  155  A    between atoms: _379  and  _380
REMARK  156  A    between atoms: _379  and  _382
REMARK  157  A    between atoms: _382  and  _383
REMARK  158  A    between atoms: _393  and  _395
REMARK  159  A    between atoms: _395  and  _396
REMARK  160  A    between atoms: _395  and  _398
REMARK  161  A    between atoms: _398  and  _399
REMARK  162  A    between atoms: _402  and  _404
REMARK  163  A    between atoms: _404  and  _405
REMARK  164  A    between atoms: _404  and  _407
REMARK  165  A    between atoms: _409  and  _411
REMARK  166  A    between atoms: _411  and  _412
REMARK  167  A    between atoms: _411  and  _414
REMARK  168  A    between atoms: _414  and  _415
REMARK  169  A    between atoms: _420  and  _421
REMARK  170  A    between atoms: _423  and  _425
REMARK  171  A    between atoms: _425  and  _426
REMARK  172  A    between atoms: _425  and  _428
REMARK  173  A    between atoms: _428  and  _429
REMARK  174  A    between atoms: _429  and  _430
REMARK  175  A    between atoms: _430  and  _431
REMARK  176  A    between atoms: _431  and  _432
REMARK  177  A    between atoms: _436  and  _438
REMARK  178  A    between atoms: _438  and  _439
REMARK  179  A    between atoms: _438  and  _441
REMARK  180  A    between atoms: _441  and  _442
REMARK  181  A    between atoms: _447  and  _448
REMARK  182  A    between atoms: _450  and  _452
REMARK  183  A    between atoms: _452  and  _453
REMARK  184  A    between atoms: _452  and  _455
REMARK  185  A    between atoms: _455  and  _456
REMARK  186  A    between atoms: _459  and  _461
REMARK  187  A    between atoms: _461  and  _462
REMARK  188  A    between atoms: _461  and  _464
REMARK  189  A    between atoms: _464  and  _465
REMARK  190  A    between atoms: _468  and  _470
REMARK  191  A    between atoms: _470  and  _471
REMARK  192  A    between atoms: _470  and  _473
REMARK  193  A    between atoms: _476  and  _478
REMARK  194  A    between atoms: _478  and  _479
REMARK  195  A    between atoms: _478  and  _481
REMARK  196  A    between atoms: _481  and  _482
REMARK  197  A    between atoms: _484  and  _486
REMARK  198  A    between atoms: _486  and  _487
REMARK  199  A    between atoms: _490  and  _492
REMARK  200  A    between atoms: _492  and  _493
REMARK  201  A    between atoms: _495  and  _497
REMARK  202  A    between atoms: _497  and  _498
REMARK  203  A    between atoms: _497  and  _500
REMARK  204  A    between atoms: _500  and  _501
REMARK  205  A    between atoms: _506  and  _508
REMARK  206  A    between atoms: _508  and  _509
REMARK  207  A    between atoms: _508  and  _511
REMARK  208  A    between atoms: _511  and  _512
REMARK  209  A    between atoms: _515  and  _517
REMARK  210  A    between atoms: _517  and  _518
REMARK  211  A    between atoms: _517  and  _520
REMARK  212  A    between atoms: _520  and  _521
REMARK  213  A    between atoms: _524  and  _526
REMARK  214  A    between atoms: _526  and  _527
REMARK  215  A    between atoms: _526  and  _529
REMARK  216  A    between atoms: _529  and  _530
REMARK  217  A    between atoms: _533  and  _535
REMARK  218  A    between atoms: _535  and  _536
REMARK  219  A    between atoms: _535  and  _538
REMARK  220  A    between atoms: _538  and  _539
REMARK  221  A    between atoms: _545  and  _547
REMARK  222  A    between atoms: _547  and  _548
REMARK  223  A    between atoms: _547  and  _550
REMARK  224  A    between atoms: _550  and  _551
REMARK  225  A    between atoms: _551  and  _552
REMARK  226  A    between atoms: _557  and  _559
REMARK  227  A    between atoms: _559  and  _560
REMARK  228  A    between atoms: _559  and  _562
REMARK  229  A    between atoms: _562  and  _563
REMARK  230  A    between atoms: _566  and  _568
REMARK  231  A    between atoms: _568  and  _569
REMARK  232  A    between atoms: _568  and  _571
REMARK  233  A    between atoms: _571  and  _572
REMARK  234  A    between atoms: _572  and  _573
REMARK  235  A    between atoms: _576  and  _578
REMARK  236  A    between atoms: _578  and  _579
REMARK  237  A    between atoms: _578  and  _581
REMARK  238  A    between atoms: _581  and  _582
REMARK  239  A    between atoms: _587  and  _589
REMARK  240  A    between atoms: _589  and  _590
REMARK  241  A    between atoms: _589  and  _592
REMARK  242  A    between atoms: _592  and  _593
REMARK  243  A    between atoms: _595  and  _597
REMARK  244  A    between atoms: _597  and  _598
REMARK  245  A    between atoms: _597  and  _600
REMARK  246  A    between atoms: _600  and  _601
REMARK  247  A    between atoms: _601  and  _602
REMARK  248  A    between atoms: _607  and  _609
REMARK  249  A    between atoms: _609  and  _610
REMARK  250  A    between atoms: _609  and  _612
REMARK  251  A    between atoms: _612  and  _613
REMARK  252  A    between atoms: _618  and  _619
REMARK  253  A    between atoms: _621  and  _623
REMARK  254  A    between atoms: _623  and  _624
REMARK  255  A    between atoms: _623  and  _626
REMARK  256  A    between atoms: _626  and  _627
REMARK  257  A    between atoms: _627  and  _628
REMARK  258  A    between atoms: _628  and  _629
REMARK  259  A    between atoms: _638  and  _640
REMARK  260  A    between atoms: _640  and  _641
REMARK  261  A    between atoms: _640  and  _643
REMARK  262  A    between atoms: _643  and  _644
REMARK  263  A    between atoms: _647  and  _649
REMARK  264  A    between atoms: _649  and  _650
REMARK  265  A    between atoms: _649  and  _652
REMARK  266  A    between atoms: _652  and  _653
REMARK  267  A    between atoms: _655  and  _657
REMARK  268  A    between atoms: _657  and  _658
REMARK  269  A    between atoms: _657  and  _660
REMARK  270  A    between atoms: _660  and  _661
REMARK  271  A    between atoms: _666  and  _668
REMARK  272  A    between atoms: _668  and  _669
REMARK  273  A    between atoms: _668  and  _671
REMARK  274  A    between atoms: _671  and  _672
REMARK  275  A    between atoms: _672  and  _673
REMARK  276  A    between atoms: _673  and  _674
REMARK  277  A    between atoms: _674  and  _675
REMARK  278  A    between atoms: _679  and  _681
REMARK  279  A    between atoms: _681  and  _682
REMARK  280  A    between atoms: _681  and  _684
REMARK  281  A    between atoms: _684  and  _685
REMARK  282  A    between atoms: _688  and  _690
REMARK  283  A    between atoms: _690  and  _691
REMARK  284  A    between atoms: _690  and  _693
REMARK  285  A    between atoms: _693  and  _694
REMARK  286  A    between atoms: _697  and  _699
REMARK  287  A    between atoms: _699  and  _700
REMARK  288  A    between atoms: _699  and  _702
REMARK  289  A    between atoms: _705  and  _707
REMARK  290  A    between atoms: _707  and  _708
REMARK  291  A    between atoms: _707  and  _710
REMARK  292  A    between atoms: _710  and  _711
REMARK                            x       y       z     vdW  Elec       q    Type
REMARK                         _______ _______ _______ _____ _____    ______ ____
ROOT
ATOM      1  CA  VAL A   1      69.699  -5.064  -0.282  0.00  0.00    +0.133 C 
ENDROOT
BRANCH   1   2
ATOM      2  CB  VAL A   1      69.959  -3.884  -1.267  0.00  0.00    +0.023 C 
ATOM      3  CG2 VAL A   1      69.262  -2.583  -0.763  0.00  0.00    +0.002 C 
ATOM      4  CG1 VAL A   1      69.511  -4.205  -2.709  0.00  0.00    +0.002 C 
ENDBRANCH   1   2
BRANCH   1   5
ATOM      5  N   VAL A   1      70.510  -4.885   0.933  0.00  0.00    -0.239 NA
ATOM      6  H   VAL A   1      71.166  -4.080   0.991  0.00  0.00    +0.142 HD
ENDBRANCH   1   5
BRANCH   1   7
ATOM      7  C   VAL A   1      70.026  -6.416  -0.928  0.00  0.00    +0.224 C 
ATOM      8  O   VAL A   1      69.137  -7.111  -1.412  0.00  0.00    -0.287 OA
ENDBRANCH   1   7
TORSDOF 3
REMARK  Name = ../refined-set-2016/1rjk/1rjk_pocket.pdb
REMARK  292 active torsions:
REMARK  status: ('A' for Active; 'I' for Inactive)
REMARK    1  A    between atoms: _1  and  _3
REMARK    2  A    between atoms: _3  and  _4
REMARK    3  A    between atoms: _3  and  _6
REMARK    4  A    between atoms: _6  and  _7
REMARK    5  A    between atoms: _10  and  _12
REMARK    6  A    between atoms: _12  and  _13
REMARK    7  A    between atoms: _12  and  _15
REMARK    8  A    between atoms: _15  and  _16
REMARK    9  A    between atoms: _21  and  _22
REMARK   10  A    between atoms: _24  and  _26
REMARK   11  A    between atoms: _26  and  _27
REMARK   12  A    between atoms: _26  and  _29
REMARK   13  A    between atoms: _29  and  _30
REMARK   14  A    between atoms: _34  and  _35
REMARK   15  A    between atoms: _40  and  _42
REMARK   16  A    between atoms: _42  and  _43
REMARK   17  A    between atoms: _42  and  _45
REMARK   18  A    between atoms: _45  and  _46
REMARK   19  A    between atoms: _51  and  _52
REMARK   20  A    between atoms: _54  and  _56
REMARK   21  A    between atoms: _56  and  _57
REMARK   22  A    between atoms: _56  and  _59
REMARK   23  A    between atoms: _59  and  _60
REMARK   24  A    between atoms: _66  and  _68
REMARK   25  A    between atoms: _68  and  _69
REMARK   26  A    between atoms: _68  and  _71
REMARK   27  A    between atoms: _71  and  _72
REMARK   28  A    between atoms: _78  and  _80
REMARK   29  A    between atoms: _80  and  _81
REMARK   30  A    between atoms: _80  and  _83
REMARK   31  A    between atoms: _83  and  _84
REMARK   32  A    between atoms: _84  and  _85
REMARK   33  A    between atoms: _85  and  _86
REMARK   34  A    between atoms: _95  and  _97
REMARK   35  A    between atoms: _97  and  _98
REMARK   36  A    between atoms: _97  and  _100
REMARK   37  A    between atoms: _100  and  _101
REMARK   38  A    between atoms: _104  and  _106
REMARK   39  A    between atoms: _106  and  _107
REMARK   40  A    between atoms: _106  and  _109
REMARK   41  A    between atoms: _109  and  _110
REMARK   42  A    between atoms: _110  and  _111
REMARK   43  A    between atoms: _113  and  _115
REMARK   44  A    between atoms: _115  and  _116
REMARK   45  A    between atoms: _115  and  _118
REMARK   46  A    between atoms: _118  and  _119
REMARK   47  A    between atoms: _123  and  _124
REMARK   48  A    between atoms: _129  and  _131
REMARK   49  A    between atoms: _131  and  _132
REMARK   50  A    between atoms: _131  and  _134
REMARK   51  A    between atoms: _134  and  _135
REMARK   52  A    between atoms: _140  and  _142
REMARK   53  A    between atoms: _142  and  _143
REMARK   54  A    between atoms: _142  and  _145
REMARK   55  A    between atoms: _145  and  _146
REMARK   56  A    between atoms: _149  and  _151
REMARK   57  A    between atoms: _151  and  _152
REMARK   58  A    between atoms: _155  and  _157
REMARK   59  A    between atoms: _157  and  _158
REMARK   60  A    between atoms: _157  and  _160
REMARK   61  A    between atoms: _160  and  _161
REMARK   62  A    between atoms: _164  and  _166
REMARK   63  A    between atoms: _166  and  _167
REMARK   64  A    between atoms: _166  and  _169
REMARK   65  A    between atoms: _169  and  _170
REMARK   66  A    between atoms: _173  and  _175
REMARK   67  A    between atoms: _175  and  _176
REMARK   68  A    between atoms: _175  and  _178
REMARK   69  A    between atoms: _181  and  _183
REMARK   70  A    between atoms: _183  and  _184
REMARK   71  A    between atoms: _183  and  _186
REMARK   72  A    between atoms: _186  and  _187
REMARK   73  A    between atoms: _189  and  _191
REMARK   74  A    between atoms: _191  and  _192
REMARK   75  A    between atoms: _191  and  _194
REMARK   76  A    between atoms: _194  and  _195
REMARK   77  A    between atoms: _200  and  _201
REMARK   78  A    between atoms: _203  and  _205
REMARK   79  A    between atoms: _205  and  _206
REMARK   80  A    between atoms: _205  and  _208
REMARK   81  A    between atoms: _208  and  _209
REMARK   82  A    between atoms: _211  and  _213
REMARK   83  A    between atoms: _213  and  _214
REMARK   84  A    between atoms: _213  and  _216
REMARK   85  A    between atoms: _216  and  _217
REMARK   86  A    between atoms: _220  and  _222
REMARK   87  A    between atoms: _222  and  _223
REMARK   88  A    between atoms: _222  and  _225
REMARK   89  A    between atoms: _225  and  _226
REMARK   90  A    between atoms: _226  and  _227
REMARK   91  A    between atoms: _227  and  _228
REMARK   92  A    between atoms: _228  and  _229
REMARK   93  A    between atoms: _233  and  _235
REMARK   94  A    between atoms: _235  and  _236
REMARK   95  A    between atoms: _235  and  _238
REMARK   96  A    between atoms: _241  and  _243
REMARK   97  A    between atoms: _243  and  _244
REMARK   98  A    between atoms: _247  and  _249
REMARK   99  A    between atoms: _249  and  _250
REMARK  100  A    between atoms: _249  and  _252
REMARK  101  A    between atoms: _252  and  _253
REMARK  102  A    between atoms: _256  and  _258
REMARK  103  A    between atoms: _258  and  _259
REMARK  104  A    between atoms: _258  and  _261
REMARK  105  A    between atoms: _261  and  _262
REMARK  106  A    between atoms: _262  and  _263
REMARK  107  A    between atoms: _266  and  _268
REMARK  108  A    between atoms: _268  and  _269
REMARK  109  A    between atoms: _268  and  _271
REMARK  110  A    between atoms: _274  and  _276
REMARK  111  A    between atoms: _276  and  _277
REMARK  112  A    between atoms: _276  and  _279
REMARK  113  A    between atoms: _279  and  _280
REMARK  114  A    between atoms: _283  and  _285
REMARK  115  A    between atoms: _285  and  _286
REMARK  116  A    between atoms: _285  and  _288
REMARK  117  A    between atoms: _288  and  _289
REMARK  118  A    between atoms: _289  and  _290
REMARK  119  A    between atoms: _292  and  _294
REMARK  120  A    between atoms: _294  and  _295
REMARK  121  A    between atoms: _294  and  _297
REMARK  122  A    between atoms: _297  and  _298
REMARK  123  A    between atoms: _301  and  _303
REMARK  124  A    between atoms: _303  and  _304
REMARK  125  A    between atoms: _303  and  _306
REMARK  126  A    between atoms: _306  and  _307
REMARK  127  A    between atoms: _307  and  _308
REMARK  128  A    between atoms: _308  and  _309
REMARK  129  A    between atoms: _318  and  _320
REMARK  130  A    between atoms: _320  and  _321
REMARK  131  A    between atoms: _320  and  _323
REMARK  132  A    between atoms: _323  and  _324
REMARK  133  A    between atoms: _326  and  _328
REMARK  134  A    between atoms: _328  and  _329
REMARK  135  A    between atoms: _328  and  _331
REMARK  136  A    between atoms: _331  and  _332
REMARK  137  A    between atoms: _337  and  _339
REMARK  138  A    between atoms: _339  and  _340
REMARK  139  A    between atoms: _339  and  _342
REMARK  140  A    between atoms: _342  and  _343
REMARK  141  A    between atoms: _343  and  _344
REMARK  142  A    between atoms: _349  and  _351
REMARK  143  A    between atoms: _351  and  _352
REMARK  144  A    between atoms: _351  and  _354
REMARK  145  A    between atoms: _354  and  _355
REMARK  146  A    between atoms: _357  and  _359
REMARK  147  A    between atoms: _359  and  _360
REMARK  148  A    between atoms: _359  and  _362
REMARK  149  A    between atoms: _362  and  _363
REMARK  150  A    between atoms: _369  and  _371
REMARK  151  A    between atoms: _371  and  _372
REMARK  152  A    between atoms: _371  and  _374
REMARK  153  A    between atoms: _374  and  _375
REMARK  154  A    between atoms: _377  and  _379
REMARK  155  A    between atoms: _379  and  _380
REMARK  156  A    between atoms: _379  and  _382
REMARK  157  A    between atoms: _382  and  _383
REMARK  158  A    between atoms: _393  and  _395
REMARK  159  A    between atoms: _395  and  _396
REMARK  160  A    between atoms: _395  and  _398
REMARK  161  A    between atoms: _398  and  _399
REMARK  162  A    between atoms: _402  and  _404
REMARK  163  A    between atoms: _404  and  _405
REMARK  164  A    between atoms: _404  and  _407
REMARK  165  A    between atoms: _409  and  _411
REMARK  166  A    between atoms: _411  and  _412
REMARK  167  A    between atoms: _411  and  _414
REMARK  168  A    between atoms: _414  and  _415
REMARK  169  A    between atoms: _420  and  _421
REMARK  170  A    between atoms: _423  and  _425
REMARK  171  A    between atoms: _425  and  _426
REMARK  172  A    between atoms: _425  and  _428
REMARK  173  A    between atoms: _428  and  _429
REMARK  174  A    between atoms: _429  and  _430
REMARK  175  A    between atoms: _430  and  _431
REMARK  176  A    between atoms: _431  and  _432
REMARK  177  A    between atoms: _436  and  _438
REMARK  178  A    between atoms: _438  and  _439
REMARK  179  A    between atoms: _438  and  _441
REMARK  180  A    between atoms: _441  and  _442
REMARK  181  A    between atoms: _447  and  _448
REMARK  182  A    between atoms: _450  and  _452
REMARK  183  A    between atoms: _452  and  _453
REMARK  184  A    between atoms: _452  and  _455
REMARK  185  A    between atoms: _455  and  _456
REMARK  186  A    between atoms: _459  and  _461
REMARK  187  A    between atoms: _461  and  _462
REMARK  188  A    between atoms: _461  and  _464
REMARK  189  A    between atoms: _464  and  _465
REMARK  190  A    between atoms: _468  and  _470
REMARK  191  A    between atoms: _470  and  _471
REMARK  192  A    between atoms: _470  and  _473
REMARK  193  A    between atoms: _476  and  _478
REMARK  194  A    between atoms: _478  and  _479
REMARK  195  A    between atoms: _478  and  _481
REMARK  196  A    between atoms: _481  and  _482
REMARK  197  A    between atoms: _484  and  _486
REMARK  198  A    between atoms: _486  and  _487
REMARK  199  A    between atoms: _490  and  _492
REMARK  200  A    between atoms: _492  and  _493
REMARK  201  A    between atoms: _495  and  _497
REMARK  202  A    between atoms: _497  and  _498
REMARK  203  A    between atoms: _497  and  _500
REMARK  204  A    between atoms: _500  and  _501
REMARK  205  A    between atoms: _506  and  _508
REMARK  206  A    between atoms: _508  and  _509
REMARK  207  A    between atoms: _508  and  _511
REMARK  208  A    between atoms: _511  and  _512
REMARK  209  A    between atoms: _515  and  _517
REMARK  210  A    between atoms: _517  and  _518
REMARK  211  A    between atoms: _517  and  _520
REMARK  212  A    between atoms: _520  and  _521
REMARK  213  A    between atoms: _524  and  _526
REMARK  214  A    between atoms: _526  and  _527
REMARK  215  A    between atoms: _526  and  _529
REMARK  216  A    between atoms: _529  and  _530
REMARK  217  A    between atoms: _533  and  _535
REMARK  218  A    between atoms: _535  and  _536
REMARK  219  A    between atoms: _535  and  _538
REMARK  220  A    between atoms: _538  and  _539
REMARK  221  A    between atoms: _545  and  _547
REMARK  222  A    between atoms: _547  and  _548
REMARK  223  A    between atoms: _547  and  _550
REMARK  224  A    between atoms: _550  and  _551
REMARK  225  A    between atoms: _551  and  _552
REMARK  226  A    between atoms: _557  and  _559
REMARK  227  A    between atoms: _559  and  _560
REMARK  228  A    between atoms: _559  and  _562
REMARK  229  A    between atoms: _562  and  _563
REMARK  230  A    between atoms: _566  and  _568
REMARK  231  A    between atoms: _568  and  _569
REMARK  232  A    between atoms: _568  and  _571
REMARK  233  A    between atoms: _571  and  _572
REMARK  234  A    between atoms: _572  and  _573
REMARK  235  A    between atoms: _576  and  _578
REMARK  236  A    between atoms: _578  and  _579
REMARK  237  A    between atoms: _578  and  _581
REMARK  238  A    between atoms: _581  and  _582
REMARK  239  A    between atoms: _587  and  _589
REMARK  240  A    between atoms: _589  and  _590
REMARK  241  A    between atoms: _589  and  _592
REMARK  242  A    between atoms: _592  and  _593
REMARK  243  A    between atoms: _595  and  _597
REMARK  244  A    between atoms: _597  and  _598
REMARK  245  A    between atoms: _597  and  _600
REMARK  246  A    between atoms: _600  and  _601
REMARK  247  A    between atoms: _601  and  _602
REMARK  248  A    between atoms: _607  and  _609
REMARK  249  A    between atoms: _609  and  _610
REMARK  250  A    between atoms: _609  and  _612
REMARK  251  A    between atoms: _612  and  _613
REMARK  252  A    between atoms: _618  and  _619
REMARK  253  A    between atoms: _621  and  _623
REMARK  254  A    between atoms: _623  and  _624
REMARK  255  A    between atoms: _623  and  _626
REMARK  256  A    between atoms: _626  and  _627
REMARK  257  A    between atoms: _627  and  _628
REMARK  258  A    between atoms: _628  and  _629
REMARK  259  A    between atoms: _638  and  _640
REMARK  260  A    between atoms: _640  and  _641
REMARK  261  A    between atoms: _640  and  _643
REMARK  262  A    between atoms: _643  and  _644
REMARK  263  A    between atoms: _647  and  _649
REMARK  264  A    between atoms: _649  and  _650
REMARK  265  A    between atoms: _649  and  _652
REMARK  266  A    between atoms: _652  and  _653
REMARK  267  A    between atoms: _655  and  _657
REMARK  268  A    between atoms: _657  and  _658
REMARK  269  A    between atoms: _657  and  _660
REMARK  270  A    between atoms: _660  and  _661
REMARK  271  A    between atoms: _666  and  _668
REMARK  272  A    between atoms: _668  and  _669
REMARK  273  A    between atoms: _668  and  _671
REMARK  274  A    between atoms: _671  and  _672
REMARK  275  A    between atoms: _672  and  _673
REMARK  276  A    between atoms: _673  and  _674
REMARK  277  A    between atoms: _674  and  _675
REMARK  278  A    between atoms: _679  and  _681
REMARK  279  A    between atoms: _681  and  _682
REMARK  280  A    between atoms: _681  and  _684
REMARK  281  A    between atoms: _684  and  _685
REMARK  282  A    between atoms: _688  and  _690
REMARK  283  A    between atoms: _690  and  _691
REMARK  284  A    between atoms: _690  and  _693
REMARK  285  A    between atoms: _693  and  _694
REMARK  286  A    between atoms: _697  and  _699
REMARK  287  A    between atoms: _699  and  _700
REMARK  288  A    between atoms: _699  and  _702
REMARK  289  A    between atoms: _705  and  _707
REMARK  290  A    between atoms: _707  and  _708
REMARK  291  A    between atoms: _707  and  _710
REMARK  292  A    between atoms: _710  and  _711
REMARK                            x       y       z     vdW  Elec       q    Type
REMARK                         _______ _______ _______ _____ _____    ______ ____
ROOT
ATOM      1  CB  PHE A   1      66.371  -7.698  -3.310  0.00  0.00    +0.051 C 
ENDROOT
BRANCH   1   2
ATOM      2  CG  PHE A   1      65.477  -6.635  -2.744  0.00  0.00    -0.020 A 
ATOM      3  CD2 PHE A   1      64.265  -6.965  -2.136  0.00  0.00    -0.004 A 
ATOM      4  CE2 PHE A   1      63.436  -5.959  -1.596  0.00  0.00    -0.000 A 
ATOM      5  CZ  PHE A   1      63.802  -4.640  -1.686  0.00  0.00    -0.000 A 
ATOM      6  CE1 PHE A   1      64.995  -4.299  -2.314  0.00  0.00    -0.000 A 
ATOM      7  CD1 PHE A   1      65.830  -5.303  -2.827  0.00  0.00    -0.004 A 
ENDBRANCH   1   2
BRANCH   1   8
ATOM      8  CA  PHE A   1      66.341  -9.012  -2.523  0.00  0.00    +0.137 C 
BRANCH   8   9
ATOM      9  N   PHE A   1      66.879  -8.839  -1.175  0.00  0.00    -0.239 NA
ATOM     10  H   PHE A   1      67.701  -8.219  -1.029  0.00  0.00    +0.142 HD
ENDBRANCH   8   9
BRANCH   8  11
ATOM     11  C   PHE A   1      66.987 -10.116  -3.352  0.00  0.00    +0.224 C 
ATOM     12  O   PHE A   1      66.380 -10.589  -4.306  0.00  0.00    -0.287 OA
ENDBRANCH   8  11
ENDBRANCH   1   8
TORSDOF 4
REMARK  Name = ../refined-set-2016/1rjk/1rjk_pocket.pdb
REMARK  292 active torsions:
REMARK  status: ('A' for Active; 'I' for Inactive)
REMARK    1  A    between atoms: _1  and  _3
REMARK    2  A    between atoms: _3  and  _4
REMARK    3  A    between atoms: _3  and  _6
REMARK    4  A    between atoms: _6  and  _7
REMARK    5  A    between atoms: _10  and  _12
REMARK    6  A    between atoms: _12  and  _13
REMARK    7  A    between atoms: _12  and  _15
REMARK    8  A    between atoms: _15  and  _16
REMARK    9  A    between atoms: _21  and  _22
REMARK   10  A    between atoms: _24  and  _26
REMARK   11  A    between atoms: _26  and  _27
REMARK   12  A    between atoms: _26  and  _29
REMARK   13  A    between atoms: _29  and  _30
REMARK   14  A    between atoms: _34  and  _35
REMARK   15  A    between atoms: _40  and  _42
REMARK   16  A    between atoms: _42  and  _43
REMARK   17  A    between atoms: _42  and  _45
REMARK   18  A    between atoms: _45  and  _46
REMARK   19  A    between atoms: _51  and  _52
REMARK   20  A    between atoms: _54  and  _56
REMARK   21  A    between atoms: _56  and  _57
REMARK   22  A    between atoms: _56  and  _59
REMARK   23  A    between atoms: _59  and  _60
REMARK   24  A    between atoms: _66  and  _68
REMARK   25  A    between atoms: _68  and  _69
REMARK   26  A    between atoms: _68  and  _71
REMARK   27  A    between atoms: _71  and  _72
REMARK   28  A    between atoms: _78  and  _80
REMARK   29  A    between atoms: _80  and  _81
REMARK   30  A    between atoms: _80  and  _83
REMARK   31  A    between atoms: _83  and  _84
REMARK   32  A    between atoms: _84  and  _85
REMARK   33  A    between atoms: _85  and  _86
REMARK   34  A    between atoms: _95  and  _97
REMARK   35  A    between atoms: _97  and  _98
REMARK   36  A    between atoms: _97  and  _100
REMARK   37  A    between atoms: _100  and  _101
REMARK   38  A    between atoms: _104  and  _106
REMARK   39  A    between atoms: _106  and  _107
REMARK   40  A    between atoms: _106  and  _109
REMARK   41  A    between atoms: _109  and  _110
REMARK   42  A    between atoms: _110  and  _111
REMARK   43  A    between atoms: _113  and  _115
REMARK   44  A    between atoms: _115  and  _116
REMARK   45  A    between atoms: _115  and  _118
REMARK   46  A    between atoms: _118  and  _119
REMARK   47  A    between atoms: _123  and  _124
REMARK   48  A    between atoms: _129  and  _131
REMARK   49  A    between atoms: _131  and  _132
REMARK   50  A    between atoms: _131  and  _134
REMARK   51  A    between atoms: _134  and  _135
REMARK   52  A    between atoms: _140  and  _142
REMARK   53  A    between atoms: _142  and  _143
REMARK   54  A    between atoms: _142  and  _145
REMARK   55  A    between atoms: _145  and  _146
REMARK   56  A    between atoms: _149  and  _151
REMARK   57  A    between atoms: _151  and  _152
REMARK   58  A    between atoms: _155  and  _157
REMARK   59  A    between atoms: _157  and  _158
REMARK   60  A    between atoms: _157  and  _160
REMARK   61  A    between atoms: _160  and  _161
REMARK   62  A    between atoms: _164  and  _166
REMARK   63  A    between atoms: _166  and  _167
REMARK   64  A    between atoms: _166  and  _169
REMARK   65  A    between atoms: _169  and  _170
REMARK   66  A    between atoms: _173  and  _175
REMARK   67  A    between atoms: _175  and  _176
REMARK   68  A    between atoms: _175  and  _178
REMARK   69  A    between atoms: _181  and  _183
REMARK   70  A    between atoms: _183  and  _184
REMARK   71  A    between atoms: _183  and  _186
REMARK   72  A    between atoms: _186  and  _187
REMARK   73  A    between atoms: _189  and  _191
REMARK   74  A    between atoms: _191  and  _192
REMARK   75  A    between atoms: _191  and  _194
REMARK   76  A    between atoms: _194  and  _195
REMARK   77  A    between atoms: _200  and  _201
REMARK   78  A    between atoms: _203  and  _205
REMARK   79  A    between atoms: _205  and  _206
REMARK   80  A    between atoms: _205  and  _208
REMARK   81  A    between atoms: _208  and  _209
REMARK   82  A    between atoms: _211  and  _213
REMARK   83  A    between atoms: _213  and  _214
REMARK   84  A    between atoms: _213  and  _216
REMARK   85  A    between atoms: _216  and  _217
REMARK   86  A    between atoms: _220  and  _222
REMARK   87  A    between atoms: _222  and  _223
REMARK   88  A    between atoms: _222  and  _225
REMARK   89  A    between atoms: _225  and  _226
REMARK   90  A    between atoms: _226  and  _227
REMARK   91  A    between atoms: _227  and  _228
REMARK   92  A    between atoms: _228  and  _229
REMARK   93  A    between atoms: _233  and  _235
REMARK   94  A    between atoms: _235  and  _236
REMARK   95  A    between atoms: _235  and  _238
REMARK   96  A    between atoms: _241  and  _243
REMARK   97  A    between atoms: _243  and  _244
REMARK   98  A    between atoms: _247  and  _249
REMARK   99  A    between atoms: _249  and  _250
REMARK  100  A    between atoms: _249  and  _252
REMARK  101  A    between atoms: _252  and  _253
REMARK  102  A    between atoms: _256  and  _258
REMARK  103  A    between atoms: _258  and  _259
REMARK  104  A    between atoms: _258  and  _261
REMARK  105  A    between atoms: _261  and  _262
REMARK  106  A    between atoms: _262  and  _263
REMARK  107  A    between atoms: _266  and  _268
REMARK  108  A    between atoms: _268  and  _269
REMARK  109  A    between atoms: _268  and  _271
REMARK  110  A    between atoms: _274  and  _276
REMARK  111  A    between atoms: _276  and  _277
REMARK  112  A    between atoms: _276  and  _279
REMARK  113  A    between atoms: _279  and  _280
REMARK  114  A    between atoms: _283  and  _285
REMARK  115  A    between atoms: _285  and  _286
REMARK  116  A    between atoms: _285  and  _288
REMARK  117  A    between atoms: _288  and  _289
REMARK  118  A    between atoms: _289  and  _290
REMARK  119  A    between atoms: _292  and  _294
REMARK  120  A    between atoms: _294  and  _295
REMARK  121  A    between atoms: _294  and  _297
REMARK  122  A    between atoms: _297  and  _298
REMARK  123  A    between atoms: _301  and  _303
REMARK  124  A    between atoms: _303  and  _304
REMARK  125  A    between atoms: _303  and  _306
REMARK  126  A    between atoms: _306  and  _307
REMARK  127  A    between atoms: _307  and  _308
REMARK  128  A    between atoms: _308  and  _309
REMARK  129  A    between atoms: _318  and  _320
REMARK  130  A    between atoms: _320  and  _321
REMARK  131  A    between atoms: _320  and  _323
REMARK  132  A    between atoms: _323  and  _324
REMARK  133  A    between atoms: _326  and  _328
REMARK  134  A    between atoms: _328  and  _329
REMARK  135  A    between atoms: _328  and  _331
REMARK  136  A    between atoms: _331  and  _332
REMARK  137  A    between atoms: _337  and  _339
REMARK  138  A    between atoms: _339  and  _340
REMARK  139  A    between atoms: _339  and  _342
REMARK  140  A    between atoms: _342  and  _343
REMARK  141  A    between atoms: _343  and  _344
REMARK  142  A    between atoms: _349  and  _351
REMARK  143  A    between atoms: _351  and  _352
REMARK  144  A    between atoms: _351  and  _354
REMARK  145  A    between atoms: _354  and  _355
REMARK  146  A    between atoms: _357  and  _359
REMARK  147  A    between atoms: _359  and  _360
REMARK  148  A    between atoms: _359  and  _362
REMARK  149  A    between atoms: _362  and  _363
REMARK  150  A    between atoms: _369  and  _371
REMARK  151  A    between atoms: _371  and  _372
REMARK  152  A    between atoms: _371  and  _374
REMARK  153  A    between atoms: _374  and  _375
REMARK  154  A    between atoms: _377  and  _379
REMARK  155  A    between atoms: _379  and  _380
REMARK  156  A    between atoms: _379  and  _382
REMARK  157  A    between atoms: _382  and  _383
REMARK  158  A    between atoms: _393  and  _395
REMARK  159  A    between atoms: _395  and  _396
REMARK  160  A    between atoms: _395  and  _398
REMARK  161  A    between atoms: _398  and  _399
REMARK  162  A    between atoms: _402  and  _404
REMARK  163  A    between atoms: _404  and  _405
REMARK  164  A    between atoms: _404  and  _407
REMARK  165  A    between atoms: _409  and  _411
REMARK  166  A    between atoms: _411  and  _412
REMARK  167  A    between atoms: _411  and  _414
REMARK  168  A    between atoms: _414  and  _415
REMARK  169  A    between atoms: _420  and  _421
REMARK  170  A    between atoms: _423  and  _425
REMARK  171  A    between atoms: _425  and  _426
REMARK  172  A    between atoms: _425  and  _428
REMARK  173  A    between atoms: _428  and  _429
REMARK  174  A    between atoms: _429  and  _430
REMARK  175  A    between atoms: _430  and  _431
REMARK  176  A    between atoms: _431  and  _432
REMARK  177  A    between atoms: _436  and  _438
REMARK  178  A    between atoms: _438  and  _439
REMARK  179  A    between atoms: _438  and  _441
REMARK  180  A    between atoms: _441  and  _442
REMARK  181  A    between atoms: _447  and  _448
REMARK  182  A    between atoms: _450  and  _452
REMARK  183  A    between atoms: _452  and  _453
REMARK  184  A    between atoms: _452  and  _455
REMARK  185  A    between atoms: _455  and  _456
REMARK  186  A    between atoms: _459  and  _461
REMARK  187  A    between atoms: _461  and  _462
REMARK  188  A    between atoms: _461  and  _464
REMARK  189  A    between atoms: _464  and  _465
REMARK  190  A    between atoms: _468  and  _470
REMARK  191  A    between atoms: _470  and  _471
REMARK  192  A    between atoms: _470  and  _473
REMARK  193  A    between atoms: _476  and  _478
REMARK  194  A    between atoms: _478  and  _479
REMARK  195  A    between atoms: _478  and  _481
REMARK  196  A    between atoms: _481  and  _482
REMARK  197  A    between atoms: _484  and  _486
REMARK  198  A    between atoms: _486  and  _487
REMARK  199  A    between atoms: _490  and  _492
REMARK  200  A    between atoms: _492  and  _493
REMARK  201  A    between atoms: _495  and  _497
REMARK  202  A    between atoms: _497  and  _498
REMARK  203  A    between atoms: _497  and  _500
REMARK  204  A    between atoms: _500  and  _501
REMARK  205  A    between atoms: _506  and  _508
REMARK  206  A    between atoms: _508  and  _509
REMARK  207  A    between atoms: _508  and  _511
REMARK  208  A    between atoms: _511  and  _512
REMARK  209  A    between atoms: _515  and  _517
REMARK  210  A    between atoms: _517  and  _518
REMARK  211  A    between atoms: _517  and  _520
REMARK  212  A    between atoms: _520  and  _521
REMARK  213  A    between atoms: _524  and  _526
REMARK  214  A    between atoms: _526  and  _527
REMARK  215  A    between atoms: _526  and  _529
REMARK  216  A    between atoms: _529  and  _530
REMARK  217  A    between atoms: _533  and  _535
REMARK  218  A    between atoms: _535  and  _536
REMARK  219  A    between atoms: _535  and  _538
REMARK  220  A    between atoms: _538  and  _539
REMARK  221  A    between atoms: _545  and  _547
REMARK  222  A    between atoms: _547  and  _548
REMARK  223  A    between atoms: _547  and  _550
REMARK  224  A    between atoms: _550  and  _551
REMARK  225  A    between atoms: _551  and  _552
REMARK  226  A    between atoms: _557  and  _559
REMARK  227  A    between atoms: _559  and  _560
REMARK  228  A    between atoms: _559  and  _562
REMARK  229  A    between atoms: _562  and  _563
REMARK  230  A    between atoms: _566  and  _568
REMARK  231  A    between atoms: _568  and  _569
REMARK  232  A    between atoms: _568  and  _571
REMARK  233  A    between atoms: _571  and  _572
REMARK  234  A    between atoms: _572  and  _573
REMARK  235  A    between atoms: _576  and  _578
REMARK  236  A    between atoms: _578  and  _579
REMARK  237  A    between atoms: _578  and  _581
REMARK  238  A    between atoms: _581  and  _582
REMARK  239  A    between atoms: _587  and  _589
REMARK  240  A    between atoms: _589  and  _590
REMARK  241  A    between atoms: _589  and  _592
REMARK  242  A    between atoms: _592  and  _593
REMARK  243  A    between atoms: _595  and  _597
REMARK  244  A    between atoms: _597  and  _598
REMARK  245  A    between atoms: _597  and  _600
REMARK  246  A    between atoms: _600  and  _601
REMARK  247  A    between atoms: _601  and  _602
REMARK  248  A    between atoms: _607  and  _609
REMARK  249  A    between atoms: _609  and  _610
REMARK  250  A    between atoms: _609  and  _612
REMARK  251  A    between atoms: _612  and  _613
REMARK  252  A    between atoms: _618  and  _619
REMARK  253  A    between atoms: _621  and  _623
REMARK  254  A    between atoms: _623  and  _624
REMARK  255  A    between atoms: _623  and  _626
REMARK  256  A    between atoms: _626  and  _627
REMARK  257  A    between atoms: _627  and  _628
REMARK  258  A    between atoms: _628  and  _629
REMARK  259  A    between atoms: _638  and  _640
REMARK  260  A    between atoms: _640  and  _641
REMARK  261  A    between atoms: _640  and  _643
REMARK  262  A    between atoms: _643  and  _644
REMARK  263  A    between atoms: _647  and  _649
REMARK  264  A    between atoms: _649  and  _650
REMARK  265  A    between atoms: _649  and  _652
REMARK  266  A    between atoms: _652  and  _653
REMARK  267  A    between atoms: _655  and  _657
REMARK  268  A    between atoms: _657  and  _658
REMARK  269  A    between atoms: _657  and  _660
REMARK  270  A    between atoms: _660  and  _661
REMARK  271  A    between atoms: _666  and  _668
REMARK  272  A    between atoms: _668  and  _669
REMARK  273  A    between atoms: _668  and  _671
REMARK  274  A    between atoms: _671  and  _672
REMARK  275  A    between atoms: _672  and  _673
REMARK  276  A    between atoms: _673  and  _674
REMARK  277  A    between atoms: _674  and  _675
REMARK  278  A    between atoms: _679  and  _681
REMARK  279  A    between atoms: _681  and  _682
REMARK  280  A    between atoms: _681  and  _684
REMARK  281  A    between atoms: _684  and  _685
REMARK  282  A    between atoms: _688  and  _690
REMARK  283  A    between atoms: _690  and  _691
REMARK  284  A    between atoms: _690  and  _693
REMARK  285  A    between atoms: _693  and  _694
REMARK  286  A    between atoms: _697  and  _699
REMARK  287  A    between atoms: _699  and  _700
REMARK  288  A    between atoms: _699  and  _702
REMARK  289  A    between atoms: _705  and  _707
REMARK  290  A    between atoms: _707  and  _708
REMARK  291  A    between atoms: _707  and  _710
REMARK  292  A    between atoms: _710  and  _711
REMARK                            x       y       z     vdW  Elec       q    Type
REMARK                         _______ _______ _______ _____ _____    ______ ____
ROOT
ATOM      1  O   HOH     1      61.561   9.192   6.258  0.00  0.00    +0.000 OA
ENDROOT
TORSDOF 0
REMARK  Name = ../refined-set-2016/1rjk/1rjk_pocket.pdb
REMARK  292 active torsions:
REMARK  status: ('A' for Active; 'I' for Inactive)
REMARK    1  A    between atoms: _1  and  _3
REMARK    2  A    between atoms: _3  and  _4
REMARK    3  A    between atoms: _3  and  _6
REMARK    4  A    between atoms: _6  and  _7
REMARK    5  A    between atoms: _10  and  _12
REMARK    6  A    between atoms: _12  and  _13
REMARK    7  A    between atoms: _12  and  _15
REMARK    8  A    between atoms: _15  and  _16
REMARK    9  A    between atoms: _21  and  _22
REMARK   10  A    between atoms: _24  and  _26
REMARK   11  A    between atoms: _26  and  _27
REMARK   12  A    between atoms: _26  and  _29
REMARK   13  A    between atoms: _29  and  _30
REMARK   14  A    between atoms: _34  and  _35
REMARK   15  A    between atoms: _40  and  _42
REMARK   16  A    between atoms: _42  and  _43
REMARK   17  A    between atoms: _42  and  _45
REMARK   18  A    between atoms: _45  and  _46
REMARK   19  A    between atoms: _51  and  _52
REMARK   20  A    between atoms: _54  and  _56
REMARK   21  A    between atoms: _56  and  _57
REMARK   22  A    between atoms: _56  and  _59
REMARK   23  A    between atoms: _59  and  _60
REMARK   24  A    between atoms: _66  and  _68
REMARK   25  A    between atoms: _68  and  _69
REMARK   26  A    between atoms: _68  and  _71
REMARK   27  A    between atoms: _71  and  _72
REMARK   28  A    between atoms: _78  and  _80
REMARK   29  A    between atoms: _80  and  _81
REMARK   30  A    between atoms: _80  and  _83
REMARK   31  A    between atoms: _83  and  _84
REMARK   32  A    between atoms: _84  and  _85
REMARK   33  A    between atoms: _85  and  _86
REMARK   34  A    between atoms: _95  and  _97
REMARK   35  A    between atoms: _97  and  _98
REMARK   36  A    between atoms: _97  and  _100
REMARK   37  A    between atoms: _100  and  _101
REMARK   38  A    between atoms: _104  and  _106
REMARK   39  A    between atoms: _106  and  _107
REMARK   40  A    between atoms: _106  and  _109
REMARK   41  A    between atoms: _109  and  _110
REMARK   42  A    between atoms: _110  and  _111
REMARK   43  A    between atoms: _113  and  _115
REMARK   44  A    between atoms: _115  and  _116
REMARK   45  A    between atoms: _115  and  _118
REMARK   46  A    between atoms: _118  and  _119
REMARK   47  A    between atoms: _123  and  _124
REMARK   48  A    between atoms: _129  and  _131
REMARK   49  A    between atoms: _131  and  _132
REMARK   50  A    between atoms: _131  and  _134
REMARK   51  A    between atoms: _134  and  _135
REMARK   52  A    between atoms: _140  and  _142
REMARK   53  A    between atoms: _142  and  _143
REMARK   54  A    between atoms: _142  and  _145
REMARK   55  A    between atoms: _145  and  _146
REMARK   56  A    between atoms: _149  and  _151
REMARK   57  A    between atoms: _151  and  _152
REMARK   58  A    between atoms: _155  and  _157
REMARK   59  A    between atoms: _157  and  _158
REMARK   60  A    between atoms: _157  and  _160
REMARK   61  A    between atoms: _160  and  _161
REMARK   62  A    between atoms: _164  and  _166
REMARK   63  A    between atoms: _166  and  _167
REMARK   64  A    between atoms: _166  and  _169
REMARK   65  A    between atoms: _169  and  _170
REMARK   66  A    between atoms: _173  and  _175
REMARK   67  A    between atoms: _175  and  _176
REMARK   68  A    between atoms: _175  and  _178
REMARK   69  A    between atoms: _181  and  _183
REMARK   70  A    between atoms: _183  and  _184
REMARK   71  A    between atoms: _183  and  _186
REMARK   72  A    between atoms: _186  and  _187
REMARK   73  A    between atoms: _189  and  _191
REMARK   74  A    between atoms: _191  and  _192
REMARK   75  A    between atoms: _191  and  _194
REMARK   76  A    between atoms: _194  and  _195
REMARK   77  A    between atoms: _200  and  _201
REMARK   78  A    between atoms: _203  and  _205
REMARK   79  A    between atoms: _205  and  _206
REMARK   80  A    between atoms: _205  and  _208
REMARK   81  A    between atoms: _208  and  _209
REMARK   82  A    between atoms: _211  and  _213
REMARK   83  A    between atoms: _213  and  _214
REMARK   84  A    between atoms: _213  and  _216
REMARK   85  A    between atoms: _216  and  _217
REMARK   86  A    between atoms: _220  and  _222
REMARK   87  A    between atoms: _222  and  _223
REMARK   88  A    between atoms: _222  and  _225
REMARK   89  A    between atoms: _225  and  _226
REMARK   90  A    between atoms: _226  and  _227
REMARK   91  A    between atoms: _227  and  _228
REMARK   92  A    between atoms: _228  and  _229
REMARK   93  A    between atoms: _233  and  _235
REMARK   94  A    between atoms: _235  and  _236
REMARK   95  A    between atoms: _235  and  _238
REMARK   96  A    between atoms: _241  and  _243
REMARK   97  A    between atoms: _243  and  _244
REMARK   98  A    between atoms: _247  and  _249
REMARK   99  A    between atoms: _249  and  _250
REMARK  100  A    between atoms: _249  and  _252
REMARK  101  A    between atoms: _252  and  _253
REMARK  102  A    between atoms: _256  and  _258
REMARK  103  A    between atoms: _258  and  _259
REMARK  104  A    between atoms: _258  and  _261
REMARK  105  A    between atoms: _261  and  _262
REMARK  106  A    between atoms: _262  and  _263
REMARK  107  A    between atoms: _266  and  _268
REMARK  108  A    between atoms: _268  and  _269
REMARK  109  A    between atoms: _268  and  _271
REMARK  110  A    between atoms: _274  and  _276
REMARK  111  A    between atoms: _276  and  _277
REMARK  112  A    between atoms: _276  and  _279
REMARK  113  A    between atoms: _279  and  _280
REMARK  114  A    between atoms: _283  and  _285
REMARK  115  A    between atoms: _285  and  _286
REMARK  116  A    between atoms: _285  and  _288
REMARK  117  A    between atoms: _288  and  _289
REMARK  118  A    between atoms: _289  and  _290
REMARK  119  A    between atoms: _292  and  _294
REMARK  120  A    between atoms: _294  and  _295
REMARK  121  A    between atoms: _294  and  _297
REMARK  122  A    between atoms: _297  and  _298
REMARK  123  A    between atoms: _301  and  _303
REMARK  124  A    between atoms: _303  and  _304
REMARK  125  A    between atoms: _303  and  _306
REMARK  126  A    between atoms: _306  and  _307
REMARK  127  A    between atoms: _307  and  _308
REMARK  128  A    between atoms: _308  and  _309
REMARK  129  A    between atoms: _318  and  _320
REMARK  130  A    between atoms: _320  and  _321
REMARK  131  A    between atoms: _320  and  _323
REMARK  132  A    between atoms: _323  and  _324
REMARK  133  A    between atoms: _326  and  _328
REMARK  134  A    between atoms: _328  and  _329
REMARK  135  A    between atoms: _328  and  _331
REMARK  136  A    between atoms: _331  and  _332
REMARK  137  A    between atoms: _337  and  _339
REMARK  138  A    between atoms: _339  and  _340
REMARK  139  A    between atoms: _339  and  _342
REMARK  140  A    between atoms: _342  and  _343
REMARK  141  A    between atoms: _343  and  _344
REMARK  142  A    between atoms: _349  and  _351
REMARK  143  A    between atoms: _351  and  _352
REMARK  144  A    between atoms: _351  and  _354
REMARK  145  A    between atoms: _354  and  _355
REMARK  146  A    between atoms: _357  and  _359
REMARK  147  A    between atoms: _359  and  _360
REMARK  148  A    between atoms: _359  and  _362
REMARK  149  A    between atoms: _362  and  _363
REMARK  150  A    between atoms: _369  and  _371
REMARK  151  A    between atoms: _371  and  _372
REMARK  152  A    between atoms: _371  and  _374
REMARK  153  A    between atoms: _374  and  _375
REMARK  154  A    between atoms: _377  and  _379
REMARK  155  A    between atoms: _379  and  _380
REMARK  156  A    between atoms: _379  and  _382
REMARK  157  A    between atoms: _382  and  _383
REMARK  158  A    between atoms: _393  and  _395
REMARK  159  A    between atoms: _395  and  _396
REMARK  160  A    between atoms: _395  and  _398
REMARK  161  A    between atoms: _398  and  _399
REMARK  162  A    between atoms: _402  and  _404
REMARK  163  A    between atoms: _404  and  _405
REMARK  164  A    between atoms: _404  and  _407
REMARK  165  A    between atoms: _409  and  _411
REMARK  166  A    between atoms: _411  and  _412
REMARK  167  A    between atoms: _411  and  _414
REMARK  168  A    between atoms: _414  and  _415
REMARK  169  A    between atoms: _420  and  _421
REMARK  170  A    between atoms: _423  and  _425
REMARK  171  A    between atoms: _425  and  _426
REMARK  172  A    between atoms: _425  and  _428
REMARK  173  A    between atoms: _428  and  _429
REMARK  174  A    between atoms: _429  and  _430
REMARK  175  A    between atoms: _430  and  _431
REMARK  176  A    between atoms: _431  and  _432
REMARK  177  A    between atoms: _436  and  _438
REMARK  178  A    between atoms: _438  and  _439
REMARK  179  A    between atoms: _438  and  _441
REMARK  180  A    between atoms: _441  and  _442
REMARK  181  A    between atoms: _447  and  _448
REMARK  182  A    between atoms: _450  and  _452
REMARK  183  A    between atoms: _452  and  _453
REMARK  184  A    between atoms: _452  and  _455
REMARK  185  A    between atoms: _455  and  _456
REMARK  186  A    between atoms: _459  and  _461
REMARK  187  A    between atoms: _461  and  _462
REMARK  188  A    between atoms: _461  and  _464
REMARK  189  A    between atoms: _464  and  _465
REMARK  190  A    between atoms: _468  and  _470
REMARK  191  A    between atoms: _470  and  _471
REMARK  192  A    between atoms: _470  and  _473
REMARK  193  A    between atoms: _476  and  _478
REMARK  194  A    between atoms: _478  and  _479
REMARK  195  A    between atoms: _478  and  _481
REMARK  196  A    between atoms: _481  and  _482
REMARK  197  A    between atoms: _484  and  _486
REMARK  198  A    between atoms: _486  and  _487
REMARK  199  A    between atoms: _490  and  _492
REMARK  200  A    between atoms: _492  and  _493
REMARK  201  A    between atoms: _495  and  _497
REMARK  202  A    between atoms: _497  and  _498
REMARK  203  A    between atoms: _497  and  _500
REMARK  204  A    between atoms: _500  and  _501
REMARK  205  A    between atoms: _506  and  _508
REMARK  206  A    between atoms: _508  and  _509
REMARK  207  A    between atoms: _508  and  _511
REMARK  208  A    between atoms: _511  and  _512
REMARK  209  A    between atoms: _515  and  _517
REMARK  210  A    between atoms: _517  and  _518
REMARK  211  A    between atoms: _517  and  _520
REMARK  212  A    between atoms: _520  and  _521
REMARK  213  A    between atoms: _524  and  _526
REMARK  214  A    between atoms: _526  and  _527
REMARK  215  A    between atoms: _526  and  _529
REMARK  216  A    between atoms: _529  and  _530
REMARK  217  A    between atoms: _533  and  _535
REMARK  218  A    between atoms: _535  and  _536
REMARK  219  A    between atoms: _535  and  _538
REMARK  220  A    between atoms: _538  and  _539
REMARK  221  A    between atoms: _545  and  _547
REMARK  222  A    between atoms: _547  and  _548
REMARK  223  A    between atoms: _547  and  _550
REMARK  224  A    between atoms: _550  and  _551
REMARK  225  A    between atoms: _551  and  _552
REMARK  226  A    between atoms: _557  and  _559
REMARK  227  A    between atoms: _559  and  _560
REMARK  228  A    between atoms: _559  and  _562
REMARK  229  A    between atoms: _562  and  _563
REMARK  230  A    between atoms: _566  and  _568
REMARK  231  A    between atoms: _568  and  _569
REMARK  232  A    between atoms: _568  and  _571
REMARK  233  A    between atoms: _571  and  _572
REMARK  234  A    between atoms: _572  and  _573
REMARK  235  A    between atoms: _576  and  _578
REMARK  236  A    between atoms: _578  and  _579
REMARK  237  A    between atoms: _578  and  _581
REMARK  238  A    between atoms: _581  and  _582
REMARK  239  A    between atoms: _587  and  _589
REMARK  240  A    between atoms: _589  and  _590
REMARK  241  A    between atoms: _589  and  _592
REMARK  242  A    between atoms: _592  and  _593
REMARK  243  A    between atoms: _595  and  _597
REMARK  244  A    between atoms: _597  and  _598
REMARK  245  A    between atoms: _597  and  _600
REMARK  246  A    between atoms: _600  and  _601
REMARK  247  A    between atoms: _601  and  _602
REMARK  248  A    between atoms: _607  and  _609
REMARK  249  A    between atoms: _609  and  _610
REMARK  250  A    between atoms: _609  and  _612
REMARK  251  A    between atoms: _612  and  _613
REMARK  252  A    between atoms: _618  and  _619
REMARK  253  A    between atoms: _621  and  _623
REMARK  254  A    between atoms: _623  and  _624
REMARK  255  A    between atoms: _623  and  _626
REMARK  256  A    between atoms: _626  and  _627
REMARK  257  A    between atoms: _627  and  _628
REMARK  258  A    between atoms: _628  and  _629
REMARK  259  A    between atoms: _638  and  _640
REMARK  260  A    between atoms: _640  and  _641
REMARK  261  A    between atoms: _640  and  _643
REMARK  262  A    between atoms: _643  and  _644
REMARK  263  A    between atoms: _647  and  _649
REMARK  264  A    between atoms: _649  and  _650
REMARK  265  A    between atoms: _649  and  _652
REMARK  266  A    between atoms: _652  and  _653
REMARK  267  A    between atoms: _655  and  _657
REMARK  268  A    between atoms: _657  and  _658
REMARK  269  A    between atoms: _657  and  _660
REMARK  270  A    between atoms: _660  and  _661
REMARK  271  A    between atoms: _666  and  _668
REMARK  272  A    between atoms: _668  and  _669
REMARK  273  A    between atoms: _668  and  _671
REMARK  274  A    between atoms: _671  and  _672
REMARK  275  A    between atoms: _672  and  _673
REMARK  276  A    between atoms: _673  and  _674
REMARK  277  A    between atoms: _674  and  _675
REMARK  278  A    between atoms: _679  and  _681
REMARK  279  A    between atoms: _681  and  _682
REMARK  280  A    between atoms: _681  and  _684
REMARK  281  A    between atoms: _684  and  _685
REMARK  282  A    between atoms: _688  and  _690
REMARK  283  A    between atoms: _690  and  _691
REMARK  284  A    between atoms: _690  and  _693
REMARK  285  A    between atoms: _693  and  _694
REMARK  286  A    between atoms: _697  and  _699
REMARK  287  A    between atoms: _699  and  _700
REMARK  288  A    between atoms: _699  and  _702
REMARK  289  A    between atoms: _705  and  _707
REMARK  290  A    between atoms: _707  and  _708
REMARK  291  A    between atoms: _707  and  _710
REMARK  292  A    between atoms: _710  and  _711
REMARK                            x       y       z     vdW  Elec       q    Type
REMARK                         _______ _______ _______ _____ _____    ______ ____
ROOT
ATOM      1  O   HOH     1      61.816   6.343   6.577  0.00  0.00    +0.000 OA
ENDROOT
TORSDOF 0
REMARK  Name = ../refined-set-2016/1rjk/1rjk_pocket.pdb
REMARK  292 active torsions:
REMARK  status: ('A' for Active; 'I' for Inactive)
REMARK    1  A    between atoms: _1  and  _3
REMARK    2  A    between atoms: _3  and  _4
REMARK    3  A    between atoms: _3  and  _6
REMARK    4  A    between atoms: _6  and  _7
REMARK    5  A    between atoms: _10  and  _12
REMARK    6  A    between atoms: _12  and  _13
REMARK    7  A    between atoms: _12  and  _15
REMARK    8  A    between atoms: _15  and  _16
REMARK    9  A    between atoms: _21  and  _22
REMARK   10  A    between atoms: _24  and  _26
REMARK   11  A    between atoms: _26  and  _27
REMARK   12  A    between atoms: _26  and  _29
REMARK   13  A    between atoms: _29  and  _30
REMARK   14  A    between atoms: _34  and  _35
REMARK   15  A    between atoms: _40  and  _42
REMARK   16  A    between atoms: _42  and  _43
REMARK   17  A    between atoms: _42  and  _45
REMARK   18  A    between atoms: _45  and  _46
REMARK   19  A    between atoms: _51  and  _52
REMARK   20  A    between atoms: _54  and  _56
REMARK   21  A    between atoms: _56  and  _57
REMARK   22  A    between atoms: _56  and  _59
REMARK   23  A    between atoms: _59  and  _60
REMARK   24  A    between atoms: _66  and  _68
REMARK   25  A    between atoms: _68  and  _69
REMARK   26  A    between atoms: _68  and  _71
REMARK   27  A    between atoms: _71  and  _72
REMARK   28  A    between atoms: _78  and  _80
REMARK   29  A    between atoms: _80  and  _81
REMARK   30  A    between atoms: _80  and  _83
REMARK   31  A    between atoms: _83  and  _84
REMARK   32  A    between atoms: _84  and  _85
REMARK   33  A    between atoms: _85  and  _86
REMARK   34  A    between atoms: _95  and  _97
REMARK   35  A    between atoms: _97  and  _98
REMARK   36  A    between atoms: _97  and  _100
REMARK   37  A    between atoms: _100  and  _101
REMARK   38  A    between atoms: _104  and  _106
REMARK   39  A    between atoms: _106  and  _107
REMARK   40  A    between atoms: _106  and  _109
REMARK   41  A    between atoms: _109  and  _110
REMARK   42  A    between atoms: _110  and  _111
REMARK   43  A    between atoms: _113  and  _115
REMARK   44  A    between atoms: _115  and  _116
REMARK   45  A    between atoms: _115  and  _118
REMARK   46  A    between atoms: _118  and  _119
REMARK   47  A    between atoms: _123  and  _124
REMARK   48  A    between atoms: _129  and  _131
REMARK   49  A    between atoms: _131  and  _132
REMARK   50  A    between atoms: _131  and  _134
REMARK   51  A    between atoms: _134  and  _135
REMARK   52  A    between atoms: _140  and  _142
REMARK   53  A    between atoms: _142  and  _143
REMARK   54  A    between atoms: _142  and  _145
REMARK   55  A    between atoms: _145  and  _146
REMARK   56  A    between atoms: _149  and  _151
REMARK   57  A    between atoms: _151  and  _152
REMARK   58  A    between atoms: _155  and  _157
REMARK   59  A    between atoms: _157  and  _158
REMARK   60  A    between atoms: _157  and  _160
REMARK   61  A    between atoms: _160  and  _161
REMARK   62  A    between atoms: _164  and  _166
REMARK   63  A    between atoms: _166  and  _167
REMARK   64  A    between atoms: _166  and  _169
REMARK   65  A    between atoms: _169  and  _170
REMARK   66  A    between atoms: _173  and  _175
REMARK   67  A    between atoms: _175  and  _176
REMARK   68  A    between atoms: _175  and  _178
REMARK   69  A    between atoms: _181  and  _183
REMARK   70  A    between atoms: _183  and  _184
REMARK   71  A    between atoms: _183  and  _186
REMARK   72  A    between atoms: _186  and  _187
REMARK   73  A    between atoms: _189  and  _191
REMARK   74  A    between atoms: _191  and  _192
REMARK   75  A    between atoms: _191  and  _194
REMARK   76  A    between atoms: _194  and  _195
REMARK   77  A    between atoms: _200  and  _201
REMARK   78  A    between atoms: _203  and  _205
REMARK   79  A    between atoms: _205  and  _206
REMARK   80  A    between atoms: _205  and  _208
REMARK   81  A    between atoms: _208  and  _209
REMARK   82  A    between atoms: _211  and  _213
REMARK   83  A    between atoms: _213  and  _214
REMARK   84  A    between atoms: _213  and  _216
REMARK   85  A    between atoms: _216  and  _217
REMARK   86  A    between atoms: _220  and  _222
REMARK   87  A    between atoms: _222  and  _223
REMARK   88  A    between atoms: _222  and  _225
REMARK   89  A    between atoms: _225  and  _226
REMARK   90  A    between atoms: _226  and  _227
REMARK   91  A    between atoms: _227  and  _228
REMARK   92  A    between atoms: _228  and  _229
REMARK   93  A    between atoms: _233  and  _235
REMARK   94  A    between atoms: _235  and  _236
REMARK   95  A    between atoms: _235  and  _238
REMARK   96  A    between atoms: _241  and  _243
REMARK   97  A    between atoms: _243  and  _244
REMARK   98  A    between atoms: _247  and  _249
REMARK   99  A    between atoms: _249  and  _250
REMARK  100  A    between atoms: _249  and  _252
REMARK  101  A    between atoms: _252  and  _253
REMARK  102  A    between atoms: _256  and  _258
REMARK  103  A    between atoms: _258  and  _259
REMARK  104  A    between atoms: _258  and  _261
REMARK  105  A    between atoms: _261  and  _262
REMARK  106  A    between atoms: _262  and  _263
REMARK  107  A    between atoms: _266  and  _268
REMARK  108  A    between atoms: _268  and  _269
REMARK  109  A    between atoms: _268  and  _271
REMARK  110  A    between atoms: _274  and  _276
REMARK  111  A    between atoms: _276  and  _277
REMARK  112  A    between atoms: _276  and  _279
REMARK  113  A    between atoms: _279  and  _280
REMARK  114  A    between atoms: _283  and  _285
REMARK  115  A    between atoms: _285  and  _286
REMARK  116  A    between atoms: _285  and  _288
REMARK  117  A    between atoms: _288  and  _289
REMARK  118  A    between atoms: _289  and  _290
REMARK  119  A    between atoms: _292  and  _294
REMARK  120  A    between atoms: _294  and  _295
REMARK  121  A    between atoms: _294  and  _297
REMARK  122  A    between atoms: _297  and  _298
REMARK  123  A    between atoms: _301  and  _303
REMARK  124  A    between atoms: _303  and  _304
REMARK  125  A    between atoms: _303  and  _306
REMARK  126  A    between atoms: _306  and  _307
REMARK  127  A    between atoms: _307  and  _308
REMARK  128  A    between atoms: _308  and  _309
REMARK  129  A    between atoms: _318  and  _320
REMARK  130  A    between atoms: _320  and  _321
REMARK  131  A    between atoms: _320  and  _323
REMARK  132  A    between atoms: _323  and  _324
REMARK  133  A    between atoms: _326  and  _328
REMARK  134  A    between atoms: _328  and  _329
REMARK  135  A    between atoms: _328  and  _331
REMARK  136  A    between atoms: _331  and  _332
REMARK  137  A    between atoms: _337  and  _339
REMARK  138  A    between atoms: _339  and  _340
REMARK  139  A    between atoms: _339  and  _342
REMARK  140  A    between atoms: _342  and  _343
REMARK  141  A    between atoms: _343  and  _344
REMARK  142  A    between atoms: _349  and  _351
REMARK  143  A    between atoms: _351  and  _352
REMARK  144  A    between atoms: _351  and  _354
REMARK  145  A    between atoms: _354  and  _355
REMARK  146  A    between atoms: _357  and  _359
REMARK  147  A    between atoms: _359  and  _360
REMARK  148  A    between atoms: _359  and  _362
REMARK  149  A    between atoms: _362  and  _363
REMARK  150  A    between atoms: _369  and  _371
REMARK  151  A    between atoms: _371  and  _372
REMARK  152  A    between atoms: _371  and  _374
REMARK  153  A    between atoms: _374  and  _375
REMARK  154  A    between atoms: _377  and  _379
REMARK  155  A    between atoms: _379  and  _380
REMARK  156  A    between atoms: _379  and  _382
REMARK  157  A    between atoms: _382  and  _383
REMARK  158  A    between atoms: _393  and  _395
REMARK  159  A    between atoms: _395  and  _396
REMARK  160  A    between atoms: _395  and  _398
REMARK  161  A    between atoms: _398  and  _399
REMARK  162  A    between atoms: _402  and  _404
REMARK  163  A    between atoms: _404  and  _405
REMARK  164  A    between atoms: _404  and  _407
REMARK  165  A    between atoms: _409  and  _411
REMARK  166  A    between atoms: _411  and  _412
REMARK  167  A    between atoms: _411  and  _414
REMARK  168  A    between atoms: _414  and  _415
REMARK  169  A    between atoms: _420  and  _421
REMARK  170  A    between atoms: _423  and  _425
REMARK  171  A    between atoms: _425  and  _426
REMARK  172  A    between atoms: _425  and  _428
REMARK  173  A    between atoms: _428  and  _429
REMARK  174  A    between atoms: _429  and  _430
REMARK  175  A    between atoms: _430  and  _431
REMARK  176  A    between atoms: _431  and  _432
REMARK  177  A    between atoms: _436  and  _438
REMARK  178  A    between atoms: _438  and  _439
REMARK  179  A    between atoms: _438  and  _441
REMARK  180  A    between atoms: _441  and  _442
REMARK  181  A    between atoms: _447  and  _448
REMARK  182  A    between atoms: _450  and  _452
REMARK  183  A    between atoms: _452  and  _453
REMARK  184  A    between atoms: _452  and  _455
REMARK  185  A    between atoms: _455  and  _456
REMARK  186  A    between atoms: _459  and  _461
REMARK  187  A    between atoms: _461  and  _462
REMARK  188  A    between atoms: _461  and  _464
REMARK  189  A    between atoms: _464  and  _465
REMARK  190  A    between atoms: _468  and  _470
REMARK  191  A    between atoms: _470  and  _471
REMARK  192  A    between atoms: _470  and  _473
REMARK  193  A    between atoms: _476  and  _478
REMARK  194  A    between atoms: _478  and  _479
REMARK  195  A    between atoms: _478  and  _481
REMARK  196  A    between atoms: _481  and  _482
REMARK  197  A    between atoms: _484  and  _486
REMARK  198  A    between atoms: _486  and  _487
REMARK  199  A    between atoms: _490  and  _492
REMARK  200  A    between atoms: _492  and  _493
REMARK  201  A    between atoms: _495  and  _497
REMARK  202  A    between atoms: _497  and  _498
REMARK  203  A    between atoms: _497  and  _500
REMARK  204  A    between atoms: _500  and  _501
REMARK  205  A    between atoms: _506  and  _508
REMARK  206  A    between atoms: _508  and  _509
REMARK  207  A    between atoms: _508  and  _511
REMARK  208  A    between atoms: _511  and  _512
REMARK  209  A    between atoms: _515  and  _517
REMARK  210  A    between atoms: _517  and  _518
REMARK  211  A    between atoms: _517  and  _520
REMARK  212  A    between atoms: _520  and  _521
REMARK  213  A    between atoms: _524  and  _526
REMARK  214  A    between atoms: _526  and  _527
REMARK  215  A    between atoms: _526  and  _529
REMARK  216  A    between atoms: _529  and  _530
REMARK  217  A    between atoms: _533  and  _535
REMARK  218  A    between atoms: _535  and  _536
REMARK  219  A    between atoms: _535  and  _538
REMARK  220  A    between atoms: _538  and  _539
REMARK  221  A    between atoms: _545  and  _547
REMARK  222  A    between atoms: _547  and  _548
REMARK  223  A    between atoms: _547  and  _550
REMARK  224  A    between atoms: _550  and  _551
REMARK  225  A    between atoms: _551  and  _552
REMARK  226  A    between atoms: _557  and  _559
REMARK  227  A    between atoms: _559  and  _560
REMARK  228  A    between atoms: _559  and  _562
REMARK  229  A    between atoms: _562  and  _563
REMARK  230  A    between atoms: _566  and  _568
REMARK  231  A    between atoms: _568  and  _569
REMARK  232  A    between atoms: _568  and  _571
REMARK  233  A    between atoms: _571  and  _572
REMARK  234  A    between atoms: _572  and  _573
REMARK  235  A    between atoms: _576  and  _578
REMARK  236  A    between atoms: _578  and  _579
REMARK  237  A    between atoms: _578  and  _581
REMARK  238  A    between atoms: _581  and  _582
REMARK  239  A    between atoms: _587  and  _589
REMARK  240  A    between atoms: _589  and  _590
REMARK  241  A    between atoms: _589  and  _592
REMARK  242  A    between atoms: _592  and  _593
REMARK  243  A    between atoms: _595  and  _597
REMARK  244  A    between atoms: _597  and  _598
REMARK  245  A    between atoms: _597  and  _600
REMARK  246  A    between atoms: _600  and  _601
REMARK  247  A    between atoms: _601  and  _602
REMARK  248  A    between atoms: _607  and  _609
REMARK  249  A    between atoms: _609  and  _610
REMARK  250  A    between atoms: _609  and  _612
REMARK  251  A    between atoms: _612  and  _613
REMARK  252  A    between atoms: _618  and  _619
REMARK  253  A    between atoms: _621  and  _623
REMARK  254  A    between atoms: _623  and  _624
REMARK  255  A    between atoms: _623  and  _626
REMARK  256  A    between atoms: _626  and  _627
REMARK  257  A    between atoms: _627  and  _628
REMARK  258  A    between atoms: _628  and  _629
REMARK  259  A    between atoms: _638  and  _640
REMARK  260  A    between atoms: _640  and  _641
REMARK  261  A    between atoms: _640  and  _643
REMARK  262  A    between atoms: _643  and  _644
REMARK  263  A    between atoms: _647  and  _649
REMARK  264  A    between atoms: _649  and  _650
REMARK  265  A    between atoms: _649  and  _652
REMARK  266  A    between atoms: _652  and  _653
REMARK  267  A    between atoms: _655  and  _657
REMARK  268  A    between atoms: _657  and  _658
REMARK  269  A    between atoms: _657  and  _660
REMARK  270  A    between atoms: _660  and  _661
REMARK  271  A    between atoms: _666  and  _668
REMARK  272  A    between atoms: _668  and  _669
REMARK  273  A    between atoms: _668  and  _671
REMARK  274  A    between atoms: _671  and  _672
REMARK  275  A    between atoms: _672  and  _673
REMARK  276  A    between atoms: _673  and  _674
REMARK  277  A    between atoms: _674  and  _675
REMARK  278  A    between atoms: _679  and  _681
REMARK  279  A    between atoms: _681  and  _682
REMARK  280  A    between atoms: _681  and  _684
REMARK  281  A    between atoms: _684  and  _685
REMARK  282  A    between atoms: _688  and  _690
REMARK  283  A    between atoms: _690  and  _691
REMARK  284  A    between atoms: _690  and  _693
REMARK  285  A    between atoms: _693  and  _694
REMARK  286  A    between atoms: _697  and  _699
REMARK  287  A    between atoms: _699  and  _700
REMARK  288  A    between atoms: _699  and  _702
REMARK  289  A    between atoms: _705  and  _707
REMARK  290  A    between atoms: _707  and  _708
REMARK  291  A    between atoms: _707  and  _710
REMARK  292  A    between atoms: _710  and  _711
REMARK                            x       y       z     vdW  Elec       q    Type
REMARK                         _______ _______ _______ _____ _____    ______ ____
ROOT
ATOM      1  O   HOH     1      57.143   3.062   8.940  0.00  0.00    +0.000 OA
ENDROOT
TORSDOF 0
REMARK  Name = ../refined-set-2016/1rjk/1rjk_pocket.pdb
REMARK  292 active torsions:
REMARK  status: ('A' for Active; 'I' for Inactive)
REMARK    1  A    between atoms: _1  and  _3
REMARK    2  A    between atoms: _3  and  _4
REMARK    3  A    between atoms: _3  and  _6
REMARK    4  A    between atoms: _6  and  _7
REMARK    5  A    between atoms: _10  and  _12
REMARK    6  A    between atoms: _12  and  _13
REMARK    7  A    between atoms: _12  and  _15
REMARK    8  A    between atoms: _15  and  _16
REMARK    9  A    between atoms: _21  and  _22
REMARK   10  A    between atoms: _24  and  _26
REMARK   11  A    between atoms: _26  and  _27
REMARK   12  A    between atoms: _26  and  _29
REMARK   13  A    between atoms: _29  and  _30
REMARK   14  A    between atoms: _34  and  _35
REMARK   15  A    between atoms: _40  and  _42
REMARK   16  A    between atoms: _42  and  _43
REMARK   17  A    between atoms: _42  and  _45
REMARK   18  A    between atoms: _45  and  _46
REMARK   19  A    between atoms: _51  and  _52
REMARK   20  A    between atoms: _54  and  _56
REMARK   21  A    between atoms: _56  and  _57
REMARK   22  A    between atoms: _56  and  _59
REMARK   23  A    between atoms: _59  and  _60
REMARK   24  A    between atoms: _66  and  _68
REMARK   25  A    between atoms: _68  and  _69
REMARK   26  A    between atoms: _68  and  _71
REMARK   27  A    between atoms: _71  and  _72
REMARK   28  A    between atoms: _78  and  _80
REMARK   29  A    between atoms: _80  and  _81
REMARK   30  A    between atoms: _80  and  _83
REMARK   31  A    between atoms: _83  and  _84
REMARK   32  A    between atoms: _84  and  _85
REMARK   33  A    between atoms: _85  and  _86
REMARK   34  A    between atoms: _95  and  _97
REMARK   35  A    between atoms: _97  and  _98
REMARK   36  A    between atoms: _97  and  _100
REMARK   37  A    between atoms: _100  and  _101
REMARK   38  A    between atoms: _104  and  _106
REMARK   39  A    between atoms: _106  and  _107
REMARK   40  A    between atoms: _106  and  _109
REMARK   41  A    between atoms: _109  and  _110
REMARK   42  A    between atoms: _110  and  _111
REMARK   43  A    between atoms: _113  and  _115
REMARK   44  A    between atoms: _115  and  _116
REMARK   45  A    between atoms: _115  and  _118
REMARK   46  A    between atoms: _118  and  _119
REMARK   47  A    between atoms: _123  and  _124
REMARK   48  A    between atoms: _129  and  _131
REMARK   49  A    between atoms: _131  and  _132
REMARK   50  A    between atoms: _131  and  _134
REMARK   51  A    between atoms: _134  and  _135
REMARK   52  A    between atoms: _140  and  _142
REMARK   53  A    between atoms: _142  and  _143
REMARK   54  A    between atoms: _142  and  _145
REMARK   55  A    between atoms: _145  and  _146
REMARK   56  A    between atoms: _149  and  _151
REMARK   57  A    between atoms: _151  and  _152
REMARK   58  A    between atoms: _155  and  _157
REMARK   59  A    between atoms: _157  and  _158
REMARK   60  A    between atoms: _157  and  _160
REMARK   61  A    between atoms: _160  and  _161
REMARK   62  A    between atoms: _164  and  _166
REMARK   63  A    between atoms: _166  and  _167
REMARK   64  A    between atoms: _166  and  _169
REMARK   65  A    between atoms: _169  and  _170
REMARK   66  A    between atoms: _173  and  _175
REMARK   67  A    between atoms: _175  and  _176
REMARK   68  A    between atoms: _175  and  _178
REMARK   69  A    between atoms: _181  and  _183
REMARK   70  A    between atoms: _183  and  _184
REMARK   71  A    between atoms: _183  and  _186
REMARK   72  A    between atoms: _186  and  _187
REMARK   73  A    between atoms: _189  and  _191
REMARK   74  A    between atoms: _191  and  _192
REMARK   75  A    between atoms: _191  and  _194
REMARK   76  A    between atoms: _194  and  _195
REMARK   77  A    between atoms: _200  and  _201
REMARK   78  A    between atoms: _203  and  _205
REMARK   79  A    between atoms: _205  and  _206
REMARK   80  A    between atoms: _205  and  _208
REMARK   81  A    between atoms: _208  and  _209
REMARK   82  A    between atoms: _211  and  _213
REMARK   83  A    between atoms: _213  and  _214
REMARK   84  A    between atoms: _213  and  _216
REMARK   85  A    between atoms: _216  and  _217
REMARK   86  A    between atoms: _220  and  _222
REMARK   87  A    between atoms: _222  and  _223
REMARK   88  A    between atoms: _222  and  _225
REMARK   89  A    between atoms: _225  and  _226
REMARK   90  A    between atoms: _226  and  _227
REMARK   91  A    between atoms: _227  and  _228
REMARK   92  A    between atoms: _228  and  _229
REMARK   93  A    between atoms: _233  and  _235
REMARK   94  A    between atoms: _235  and  _236
REMARK   95  A    between atoms: _235  and  _238
REMARK   96  A    between atoms: _241  and  _243
REMARK   97  A    between atoms: _243  and  _244
REMARK   98  A    between atoms: _247  and  _249
REMARK   99  A    between atoms: _249  and  _250
REMARK  100  A    between atoms: _249  and  _252
REMARK  101  A    between atoms: _252  and  _253
REMARK  102  A    between atoms: _256  and  _258
REMARK  103  A    between atoms: _258  and  _259
REMARK  104  A    between atoms: _258  and  _261
REMARK  105  A    between atoms: _261  and  _262
REMARK  106  A    between atoms: _262  and  _263
REMARK  107  A    between atoms: _266  and  _268
REMARK  108  A    between atoms: _268  and  _269
REMARK  109  A    between atoms: _268  and  _271
REMARK  110  A    between atoms: _274  and  _276
REMARK  111  A    between atoms: _276  and  _277
REMARK  112  A    between atoms: _276  and  _279
REMARK  113  A    between atoms: _279  and  _280
REMARK  114  A    between atoms: _283  and  _285
REMARK  115  A    between atoms: _285  and  _286
REMARK  116  A    between atoms: _285  and  _288
REMARK  117  A    between atoms: _288  and  _289
REMARK  118  A    between atoms: _289  and  _290
REMARK  119  A    between atoms: _292  and  _294
REMARK  120  A    between atoms: _294  and  _295
REMARK  121  A    between atoms: _294  and  _297
REMARK  122  A    between atoms: _297  and  _298
REMARK  123  A    between atoms: _301  and  _303
REMARK  124  A    between atoms: _303  and  _304
REMARK  125  A    between atoms: _303  and  _306
REMARK  126  A    between atoms: _306  and  _307
REMARK  127  A    between atoms: _307  and  _308
REMARK  128  A    between atoms: _308  and  _309
REMARK  129  A    between atoms: _318  and  _320
REMARK  130  A    between atoms: _320  and  _321
REMARK  131  A    between atoms: _320  and  _323
REMARK  132  A    between atoms: _323  and  _324
REMARK  133  A    between atoms: _326  and  _328
REMARK  134  A    between atoms: _328  and  _329
REMARK  135  A    between atoms: _328  and  _331
REMARK  136  A    between atoms: _331  and  _332
REMARK  137  A    between atoms: _337  and  _339
REMARK  138  A    between atoms: _339  and  _340
REMARK  139  A    between atoms: _339  and  _342
REMARK  140  A    between atoms: _342  and  _343
REMARK  141  A    between atoms: _343  and  _344
REMARK  142  A    between atoms: _349  and  _351
REMARK  143  A    between atoms: _351  and  _352
REMARK  144  A    between atoms: _351  and  _354
REMARK  145  A    between atoms: _354  and  _355
REMARK  146  A    between atoms: _357  and  _359
REMARK  147  A    between atoms: _359  and  _360
REMARK  148  A    between atoms: _359  and  _362
REMARK  149  A    between atoms: _362  and  _363
REMARK  150  A    between atoms: _369  and  _371
REMARK  151  A    between atoms: _371  and  _372
REMARK  152  A    between atoms: _371  and  _374
REMARK  153  A    between atoms: _374  and  _375
REMARK  154  A    between atoms: _377  and  _379
REMARK  155  A    between atoms: _379  and  _380
REMARK  156  A    between atoms: _379  and  _382
REMARK  157  A    between atoms: _382  and  _383
REMARK  158  A    between atoms: _393  and  _395
REMARK  159  A    between atoms: _395  and  _396
REMARK  160  A    between atoms: _395  and  _398
REMARK  161  A    between atoms: _398  and  _399
REMARK  162  A    between atoms: _402  and  _404
REMARK  163  A    between atoms: _404  and  _405
REMARK  164  A    between atoms: _404  and  _407
REMARK  165  A    between atoms: _409  and  _411
REMARK  166  A    between atoms: _411  and  _412
REMARK  167  A    between atoms: _411  and  _414
REMARK  168  A    between atoms: _414  and  _415
REMARK  169  A    between atoms: _420  and  _421
REMARK  170  A    between atoms: _423  and  _425
REMARK  171  A    between atoms: _425  and  _426
REMARK  172  A    between atoms: _425  and  _428
REMARK  173  A    between atoms: _428  and  _429
REMARK  174  A    between atoms: _429  and  _430
REMARK  175  A    between atoms: _430  and  _431
REMARK  176  A    between atoms: _431  and  _432
REMARK  177  A    between atoms: _436  and  _438
REMARK  178  A    between atoms: _438  and  _439
REMARK  179  A    between atoms: _438  and  _441
REMARK  180  A    between atoms: _441  and  _442
REMARK  181  A    between atoms: _447  and  _448
REMARK  182  A    between atoms: _450  and  _452
REMARK  183  A    between atoms: _452  and  _453
REMARK  184  A    between atoms: _452  and  _455
REMARK  185  A    between atoms: _455  and  _456
REMARK  186  A    between atoms: _459  and  _461
REMARK  187  A    between atoms: _461  and  _462
REMARK  188  A    between atoms: _461  and  _464
REMARK  189  A    between atoms: _464  and  _465
REMARK  190  A    between atoms: _468  and  _470
REMARK  191  A    between atoms: _470  and  _471
REMARK  192  A    between atoms: _470  and  _473
REMARK  193  A    between atoms: _476  and  _478
REMARK  194  A    between atoms: _478  and  _479
REMARK  195  A    between atoms: _478  and  _481
REMARK  196  A    between atoms: _481  and  _482
REMARK  197  A    between atoms: _484  and  _486
REMARK  198  A    between atoms: _486  and  _487
REMARK  199  A    between atoms: _490  and  _492
REMARK  200  A    between atoms: _492  and  _493
REMARK  201  A    between atoms: _495  and  _497
REMARK  202  A    between atoms: _497  and  _498
REMARK  203  A    between atoms: _497  and  _500
REMARK  204  A    between atoms: _500  and  _501
REMARK  205  A    between atoms: _506  and  _508
REMARK  206  A    between atoms: _508  and  _509
REMARK  207  A    between atoms: _508  and  _511
REMARK  208  A    between atoms: _511  and  _512
REMARK  209  A    between atoms: _515  and  _517
REMARK  210  A    between atoms: _517  and  _518
REMARK  211  A    between atoms: _517  and  _520
REMARK  212  A    between atoms: _520  and  _521
REMARK  213  A    between atoms: _524  and  _526
REMARK  214  A    between atoms: _526  and  _527
REMARK  215  A    between atoms: _526  and  _529
REMARK  216  A    between atoms: _529  and  _530
REMARK  217  A    between atoms: _533  and  _535
REMARK  218  A    between atoms: _535  and  _536
REMARK  219  A    between atoms: _535  and  _538
REMARK  220  A    between atoms: _538  and  _539
REMARK  221  A    between atoms: _545  and  _547
REMARK  222  A    between atoms: _547  and  _548
REMARK  223  A    between atoms: _547  and  _550
REMARK  224  A    between atoms: _550  and  _551
REMARK  225  A    between atoms: _551  and  _552
REMARK  226  A    between atoms: _557  and  _559
REMARK  227  A    between atoms: _559  and  _560
REMARK  228  A    between atoms: _559  and  _562
REMARK  229  A    between atoms: _562  and  _563
REMARK  230  A    between atoms: _566  and  _568
REMARK  231  A    between atoms: _568  and  _569
REMARK  232  A    between atoms: _568  and  _571
REMARK  233  A    between atoms: _571  and  _572
REMARK  234  A    between atoms: _572  and  _573
REMARK  235  A    between atoms: _576  and  _578
REMARK  236  A    between atoms: _578  and  _579
REMARK  237  A    between atoms: _578  and  _581
REMARK  238  A    between atoms: _581  and  _582
REMARK  239  A    between atoms: _587  and  _589
REMARK  240  A    between atoms: _589  and  _590
REMARK  241  A    between atoms: _589  and  _592
REMARK  242  A    between atoms: _592  and  _593
REMARK  243  A    between atoms: _595  and  _597
REMARK  244  A    between atoms: _597  and  _598
REMARK  245  A    between atoms: _597  and  _600
REMARK  246  A    between atoms: _600  and  _601
REMARK  247  A    between atoms: _601  and  _602
REMARK  248  A    between atoms: _607  and  _609
REMARK  249  A    between atoms: _609  and  _610
REMARK  250  A    between atoms: _609  and  _612
REMARK  251  A    between atoms: _612  and  _613
REMARK  252  A    between atoms: _618  and  _619
REMARK  253  A    between atoms: _621  and  _623
REMARK  254  A    between atoms: _623  and  _624
REMARK  255  A    between atoms: _623  and  _626
REMARK  256  A    between atoms: _626  and  _627
REMARK  257  A    between atoms: _627  and  _628
REMARK  258  A    between atoms: _628  and  _629
REMARK  259  A    between atoms: _638  and  _640
REMARK  260  A    between atoms: _640  and  _641
REMARK  261  A    between atoms: _640  and  _643
REMARK  262  A    between atoms: _643  and  _644
REMARK  263  A    between atoms: _647  and  _649
REMARK  264  A    between atoms: _649  and  _650
REMARK  265  A    between atoms: _649  and  _652
REMARK  266  A    between atoms: _652  and  _653
REMARK  267  A    between atoms: _655  and  _657
REMARK  268  A    between atoms: _657  and  _658
REMARK  269  A    between atoms: _657  and  _660
REMARK  270  A    between atoms: _660  and  _661
REMARK  271  A    between atoms: _666  and  _668
REMARK  272  A    between atoms: _668  and  _669
REMARK  273  A    between atoms: _668  and  _671
REMARK  274  A    between atoms: _671  and  _672
REMARK  275  A    between atoms: _672  and  _673
REMARK  276  A    between atoms: _673  and  _674
REMARK  277  A    between atoms: _674  and  _675
REMARK  278  A    between atoms: _679  and  _681
REMARK  279  A    between atoms: _681  and  _682
REMARK  280  A    between atoms: _681  and  _684
REMARK  281  A    between atoms: _684  and  _685
REMARK  282  A    between atoms: _688  and  _690
REMARK  283  A    between atoms: _690  and  _691
REMARK  284  A    between atoms: _690  and  _693
REMARK  285  A    between atoms: _693  and  _694
REMARK  286  A    between atoms: _697  and  _699
REMARK  287  A    between atoms: _699  and  _700
REMARK  288  A    between atoms: _699  and  _702
REMARK  289  A    between atoms: _705  and  _707
REMARK  290  A    between atoms: _707  and  _708
REMARK  291  A    between atoms: _707  and  _710
REMARK  292  A    between atoms: _710  and  _711
REMARK                            x       y       z     vdW  Elec       q    Type
REMARK                         _______ _______ _______ _____ _____    ______ ____
ROOT
ATOM      1  O   HOH     1      56.957   1.100   7.114  0.00  0.00    +0.000 OA
ENDROOT
TORSDOF 0
REMARK  Name = ../refined-set-2016/1rjk/1rjk_pocket.pdb
REMARK  292 active torsions:
REMARK  status: ('A' for Active; 'I' for Inactive)
REMARK    1  A    between atoms: _1  and  _3
REMARK    2  A    between atoms: _3  and  _4
REMARK    3  A    between atoms: _3  and  _6
REMARK    4  A    between atoms: _6  and  _7
REMARK    5  A    between atoms: _10  and  _12
REMARK    6  A    between atoms: _12  and  _13
REMARK    7  A    between atoms: _12  and  _15
REMARK    8  A    between atoms: _15  and  _16
REMARK    9  A    between atoms: _21  and  _22
REMARK   10  A    between atoms: _24  and  _26
REMARK   11  A    between atoms: _26  and  _27
REMARK   12  A    between atoms: _26  and  _29
REMARK   13  A    between atoms: _29  and  _30
REMARK   14  A    between atoms: _34  and  _35
REMARK   15  A    between atoms: _40  and  _42
REMARK   16  A    between atoms: _42  and  _43
REMARK   17  A    between atoms: _42  and  _45
REMARK   18  A    between atoms: _45  and  _46
REMARK   19  A    between atoms: _51  and  _52
REMARK   20  A    between atoms: _54  and  _56
REMARK   21  A    between atoms: _56  and  _57
REMARK   22  A    between atoms: _56  and  _59
REMARK   23  A    between atoms: _59  and  _60
REMARK   24  A    between atoms: _66  and  _68
REMARK   25  A    between atoms: _68  and  _69
REMARK   26  A    between atoms: _68  and  _71
REMARK   27  A    between atoms: _71  and  _72
REMARK   28  A    between atoms: _78  and  _80
REMARK   29  A    between atoms: _80  and  _81
REMARK   30  A    between atoms: _80  and  _83
REMARK   31  A    between atoms: _83  and  _84
REMARK   32  A    between atoms: _84  and  _85
REMARK   33  A    between atoms: _85  and  _86
REMARK   34  A    between atoms: _95  and  _97
REMARK   35  A    between atoms: _97  and  _98
REMARK   36  A    between atoms: _97  and  _100
REMARK   37  A    between atoms: _100  and  _101
REMARK   38  A    between atoms: _104  and  _106
REMARK   39  A    between atoms: _106  and  _107
REMARK   40  A    between atoms: _106  and  _109
REMARK   41  A    between atoms: _109  and  _110
REMARK   42  A    between atoms: _110  and  _111
REMARK   43  A    between atoms: _113  and  _115
REMARK   44  A    between atoms: _115  and  _116
REMARK   45  A    between atoms: _115  and  _118
REMARK   46  A    between atoms: _118  and  _119
REMARK   47  A    between atoms: _123  and  _124
REMARK   48  A    between atoms: _129  and  _131
REMARK   49  A    between atoms: _131  and  _132
REMARK   50  A    between atoms: _131  and  _134
REMARK   51  A    between atoms: _134  and  _135
REMARK   52  A    between atoms: _140  and  _142
REMARK   53  A    between atoms: _142  and  _143
REMARK   54  A    between atoms: _142  and  _145
REMARK   55  A    between atoms: _145  and  _146
REMARK   56  A    between atoms: _149  and  _151
REMARK   57  A    between atoms: _151  and  _152
REMARK   58  A    between atoms: _155  and  _157
REMARK   59  A    between atoms: _157  and  _158
REMARK   60  A    between atoms: _157  and  _160
REMARK   61  A    between atoms: _160  and  _161
REMARK   62  A    between atoms: _164  and  _166
REMARK   63  A    between atoms: _166  and  _167
REMARK   64  A    between atoms: _166  and  _169
REMARK   65  A    between atoms: _169  and  _170
REMARK   66  A    between atoms: _173  and  _175
REMARK   67  A    between atoms: _175  and  _176
REMARK   68  A    between atoms: _175  and  _178
REMARK   69  A    between atoms: _181  and  _183
REMARK   70  A    between atoms: _183  and  _184
REMARK   71  A    between atoms: _183  and  _186
REMARK   72  A    between atoms: _186  and  _187
REMARK   73  A    between atoms: _189  and  _191
REMARK   74  A    between atoms: _191  and  _192
REMARK   75  A    between atoms: _191  and  _194
REMARK   76  A    between atoms: _194  and  _195
REMARK   77  A    between atoms: _200  and  _201
REMARK   78  A    between atoms: _203  and  _205
REMARK   79  A    between atoms: _205  and  _206
REMARK   80  A    between atoms: _205  and  _208
REMARK   81  A    between atoms: _208  and  _209
REMARK   82  A    between atoms: _211  and  _213
REMARK   83  A    between atoms: _213  and  _214
REMARK   84  A    between atoms: _213  and  _216
REMARK   85  A    between atoms: _216  and  _217
REMARK   86  A    between atoms: _220  and  _222
REMARK   87  A    between atoms: _222  and  _223
REMARK   88  A    between atoms: _222  and  _225
REMARK   89  A    between atoms: _225  and  _226
REMARK   90  A    between atoms: _226  and  _227
REMARK   91  A    between atoms: _227  and  _228
REMARK   92  A    between atoms: _228  and  _229
REMARK   93  A    between atoms: _233  and  _235
REMARK   94  A    between atoms: _235  and  _236
REMARK   95  A    between atoms: _235  and  _238
REMARK   96  A    between atoms: _241  and  _243
REMARK   97  A    between atoms: _243  and  _244
REMARK   98  A    between atoms: _247  and  _249
REMARK   99  A    between atoms: _249  and  _250
REMARK  100  A    between atoms: _249  and  _252
REMARK  101  A    between atoms: _252  and  _253
REMARK  102  A    between atoms: _256  and  _258
REMARK  103  A    between atoms: _258  and  _259
REMARK  104  A    between atoms: _258  and  _261
REMARK  105  A    between atoms: _261  and  _262
REMARK  106  A    between atoms: _262  and  _263
REMARK  107  A    between atoms: _266  and  _268
REMARK  108  A    between atoms: _268  and  _269
REMARK  109  A    between atoms: _268  and  _271
REMARK  110  A    between atoms: _274  and  _276
REMARK  111  A    between atoms: _276  and  _277
REMARK  112  A    between atoms: _276  and  _279
REMARK  113  A    between atoms: _279  and  _280
REMARK  114  A    between atoms: _283  and  _285
REMARK  115  A    between atoms: _285  and  _286
REMARK  116  A    between atoms: _285  and  _288
REMARK  117  A    between atoms: _288  and  _289
REMARK  118  A    between atoms: _289  and  _290
REMARK  119  A    between atoms: _292  and  _294
REMARK  120  A    between atoms: _294  and  _295
REMARK  121  A    between atoms: _294  and  _297
REMARK  122  A    between atoms: _297  and  _298
REMARK  123  A    between atoms: _301  and  _303
REMARK  124  A    between atoms: _303  and  _304
REMARK  125  A    between atoms: _303  and  _306
REMARK  126  A    between atoms: _306  and  _307
REMARK  127  A    between atoms: _307  and  _308
REMARK  128  A    between atoms: _308  and  _309
REMARK  129  A    between atoms: _318  and  _320
REMARK  130  A    between atoms: _320  and  _321
REMARK  131  A    between atoms: _320  and  _323
REMARK  132  A    between atoms: _323  and  _324
REMARK  133  A    between atoms: _326  and  _328
REMARK  134  A    between atoms: _328  and  _329
REMARK  135  A    between atoms: _328  and  _331
REMARK  136  A    between atoms: _331  and  _332
REMARK  137  A    between atoms: _337  and  _339
REMARK  138  A    between atoms: _339  and  _340
REMARK  139  A    between atoms: _339  and  _342
REMARK  140  A    between atoms: _342  and  _343
REMARK  141  A    between atoms: _343  and  _344
REMARK  142  A    between atoms: _349  and  _351
REMARK  143  A    between atoms: _351  and  _352
REMARK  144  A    between atoms: _351  and  _354
REMARK  145  A    between atoms: _354  and  _355
REMARK  146  A    between atoms: _357  and  _359
REMARK  147  A    between atoms: _359  and  _360
REMARK  148  A    between atoms: _359  and  _362
REMARK  149  A    between atoms: _362  and  _363
REMARK  150  A    between atoms: _369  and  _371
REMARK  151  A    between atoms: _371  and  _372
REMARK  152  A    between atoms: _371  and  _374
REMARK  153  A    between atoms: _374  and  _375
REMARK  154  A    between atoms: _377  and  _379
REMARK  155  A    between atoms: _379  and  _380
REMARK  156  A    between atoms: _379  and  _382
REMARK  157  A    between atoms: _382  and  _383
REMARK  158  A    between atoms: _393  and  _395
REMARK  159  A    between atoms: _395  and  _396
REMARK  160  A    between atoms: _395  and  _398
REMARK  161  A    between atoms: _398  and  _399
REMARK  162  A    between atoms: _402  and  _404
REMARK  163  A    between atoms: _404  and  _405
REMARK  164  A    between atoms: _404  and  _407
REMARK  165  A    between atoms: _409  and  _411
REMARK  166  A    between atoms: _411  and  _412
REMARK  167  A    between atoms: _411  and  _414
REMARK  168  A    between atoms: _414  and  _415
REMARK  169  A    between atoms: _420  and  _421
REMARK  170  A    between atoms: _423  and  _425
REMARK  171  A    between atoms: _425  and  _426
REMARK  172  A    between atoms: _425  and  _428
REMARK  173  A    between atoms: _428  and  _429
REMARK  174  A    between atoms: _429  and  _430
REMARK  175  A    between atoms: _430  and  _431
REMARK  176  A    between atoms: _431  and  _432
REMARK  177  A    between atoms: _436  and  _438
REMARK  178  A    between atoms: _438  and  _439
REMARK  179  A    between atoms: _438  and  _441
REMARK  180  A    between atoms: _441  and  _442
REMARK  181  A    between atoms: _447  and  _448
REMARK  182  A    between atoms: _450  and  _452
REMARK  183  A    between atoms: _452  and  _453
REMARK  184  A    between atoms: _452  and  _455
REMARK  185  A    between atoms: _455  and  _456
REMARK  186  A    between atoms: _459  and  _461
REMARK  187  A    between atoms: _461  and  _462
REMARK  188  A    between atoms: _461  and  _464
REMARK  189  A    between atoms: _464  and  _465
REMARK  190  A    between atoms: _468  and  _470
REMARK  191  A    between atoms: _470  and  _471
REMARK  192  A    between atoms: _470  and  _473
REMARK  193  A    between atoms: _476  and  _478
REMARK  194  A    between atoms: _478  and  _479
REMARK  195  A    between atoms: _478  and  _481
REMARK  196  A    between atoms: _481  and  _482
REMARK  197  A    between atoms: _484  and  _486
REMARK  198  A    between atoms: _486  and  _487
REMARK  199  A    between atoms: _490  and  _492
REMARK  200  A    between atoms: _492  and  _493
REMARK  201  A    between atoms: _495  and  _497
REMARK  202  A    between atoms: _497  and  _498
REMARK  203  A    between atoms: _497  and  _500
REMARK  204  A    between atoms: _500  and  _501
REMARK  205  A    between atoms: _506  and  _508
REMARK  206  A    between atoms: _508  and  _509
REMARK  207  A    between atoms: _508  and  _511
REMARK  208  A    between atoms: _511  and  _512
REMARK  209  A    between atoms: _515  and  _517
REMARK  210  A    between atoms: _517  and  _518
REMARK  211  A    between atoms: _517  and  _520
REMARK  212  A    between atoms: _520  and  _521
REMARK  213  A    between atoms: _524  and  _526
REMARK  214  A    between atoms: _526  and  _527
REMARK  215  A    between atoms: _526  and  _529
REMARK  216  A    between atoms: _529  and  _530
REMARK  217  A    between atoms: _533  and  _535
REMARK  218  A    between atoms: _535  and  _536
REMARK  219  A    between atoms: _535  and  _538
REMARK  220  A    between atoms: _538  and  _539
REMARK  221  A    between atoms: _545  and  _547
REMARK  222  A    between atoms: _547  and  _548
REMARK  223  A    between atoms: _547  and  _550
REMARK  224  A    between atoms: _550  and  _551
REMARK  225  A    between atoms: _551  and  _552
REMARK  226  A    between atoms: _557  and  _559
REMARK  227  A    between atoms: _559  and  _560
REMARK  228  A    between atoms: _559  and  _562
REMARK  229  A    between atoms: _562  and  _563
REMARK  230  A    between atoms: _566  and  _568
REMARK  231  A    between atoms: _568  and  _569
REMARK  232  A    between atoms: _568  and  _571
REMARK  233  A    between atoms: _571  and  _572
REMARK  234  A    between atoms: _572  and  _573
REMARK  235  A    between atoms: _576  and  _578
REMARK  236  A    between atoms: _578  and  _579
REMARK  237  A    between atoms: _578  and  _581
REMARK  238  A    between atoms: _581  and  _582
REMARK  239  A    between atoms: _587  and  _589
REMARK  240  A    between atoms: _589  and  _590
REMARK  241  A    between atoms: _589  and  _592
REMARK  242  A    between atoms: _592  and  _593
REMARK  243  A    between atoms: _595  and  _597
REMARK  244  A    between atoms: _597  and  _598
REMARK  245  A    between atoms: _597  and  _600
REMARK  246  A    between atoms: _600  and  _601
REMARK  247  A    between atoms: _601  and  _602
REMARK  248  A    between atoms: _607  and  _609
REMARK  249  A    between atoms: _609  and  _610
REMARK  250  A    between atoms: _609  and  _612
REMARK  251  A    between atoms: _612  and  _613
REMARK  252  A    between atoms: _618  and  _619
REMARK  253  A    between atoms: _621  and  _623
REMARK  254  A    between atoms: _623  and  _624
REMARK  255  A    between atoms: _623  and  _626
REMARK  256  A    between atoms: _626  and  _627
REMARK  257  A    between atoms: _627  and  _628
REMARK  258  A    between atoms: _628  and  _629
REMARK  259  A    between atoms: _638  and  _640
REMARK  260  A    between atoms: _640  and  _641
REMARK  261  A    between atoms: _640  and  _643
REMARK  262  A    between atoms: _643  and  _644
REMARK  263  A    between atoms: _647  and  _649
REMARK  264  A    between atoms: _649  and  _650
REMARK  265  A    between atoms: _649  and  _652
REMARK  266  A    between atoms: _652  and  _653
REMARK  267  A    between atoms: _655  and  _657
REMARK  268  A    between atoms: _657  and  _658
REMARK  269  A    between atoms: _657  and  _660
REMARK  270  A    between atoms: _660  and  _661
REMARK  271  A    between atoms: _666  and  _668
REMARK  272  A    between atoms: _668  and  _669
REMARK  273  A    between atoms: _668  and  _671
REMARK  274  A    between atoms: _671  and  _672
REMARK  275  A    between atoms: _672  and  _673
REMARK  276  A    between atoms: _673  and  _674
REMARK  277  A    between atoms: _674  and  _675
REMARK  278  A    between atoms: _679  and  _681
REMARK  279  A    between atoms: _681  and  _682
REMARK  280  A    between atoms: _681  and  _684
REMARK  281  A    between atoms: _684  and  _685
REMARK  282  A    between atoms: _688  and  _690
REMARK  283  A    between atoms: _690  and  _691
REMARK  284  A    between atoms: _690  and  _693
REMARK  285  A    between atoms: _693  and  _694
REMARK  286  A    between atoms: _697  and  _699
REMARK  287  A    between atoms: _699  and  _700
REMARK  288  A    between atoms: _699  and  _702
REMARK  289  A    between atoms: _705  and  _707
REMARK  290  A    between atoms: _707  and  _708
REMARK  291  A    between atoms: _707  and  _710
REMARK  292  A    between atoms: _710  and  _711
REMARK                            x       y       z     vdW  Elec       q    Type
REMARK                         _______ _______ _______ _____ _____    ______ ____
ROOT
ATOM      1  O   HOH     1      62.895   7.462   8.956  0.00  0.00    +0.000 OA
ENDROOT
TORSDOF 0
REMARK  Name = ../refined-set-2016/1rjk/1rjk_pocket.pdb
REMARK  292 active torsions:
REMARK  status: ('A' for Active; 'I' for Inactive)
REMARK    1  A    between atoms: _1  and  _3
REMARK    2  A    between atoms: _3  and  _4
REMARK    3  A    between atoms: _3  and  _6
REMARK    4  A    between atoms: _6  and  _7
REMARK    5  A    between atoms: _10  and  _12
REMARK    6  A    between atoms: _12  and  _13
REMARK    7  A    between atoms: _12  and  _15
REMARK    8  A    between atoms: _15  and  _16
REMARK    9  A    between atoms: _21  and  _22
REMARK   10  A    between atoms: _24  and  _26
REMARK   11  A    between atoms: _26  and  _27
REMARK   12  A    between atoms: _26  and  _29
REMARK   13  A    between atoms: _29  and  _30
REMARK   14  A    between atoms: _34  and  _35
REMARK   15  A    between atoms: _40  and  _42
REMARK   16  A    between atoms: _42  and  _43
REMARK   17  A    between atoms: _42  and  _45
REMARK   18  A    between atoms: _45  and  _46
REMARK   19  A    between atoms: _51  and  _52
REMARK   20  A    between atoms: _54  and  _56
REMARK   21  A    between atoms: _56  and  _57
REMARK   22  A    between atoms: _56  and  _59
REMARK   23  A    between atoms: _59  and  _60
REMARK   24  A    between atoms: _66  and  _68
REMARK   25  A    between atoms: _68  and  _69
REMARK   26  A    between atoms: _68  and  _71
REMARK   27  A    between atoms: _71  and  _72
REMARK   28  A    between atoms: _78  and  _80
REMARK   29  A    between atoms: _80  and  _81
REMARK   30  A    between atoms: _80  and  _83
REMARK   31  A    between atoms: _83  and  _84
REMARK   32  A    between atoms: _84  and  _85
REMARK   33  A    between atoms: _85  and  _86
REMARK   34  A    between atoms: _95  and  _97
REMARK   35  A    between atoms: _97  and  _98
REMARK   36  A    between atoms: _97  and  _100
REMARK   37  A    between atoms: _100  and  _101
REMARK   38  A    between atoms: _104  and  _106
REMARK   39  A    between atoms: _106  and  _107
REMARK   40  A    between atoms: _106  and  _109
REMARK   41  A    between atoms: _109  and  _110
REMARK   42  A    between atoms: _110  and  _111
REMARK   43  A    between atoms: _113  and  _115
REMARK   44  A    between atoms: _115  and  _116
REMARK   45  A    between atoms: _115  and  _118
REMARK   46  A    between atoms: _118  and  _119
REMARK   47  A    between atoms: _123  and  _124
REMARK   48  A    between atoms: _129  and  _131
REMARK   49  A    between atoms: _131  and  _132
REMARK   50  A    between atoms: _131  and  _134
REMARK   51  A    between atoms: _134  and  _135
REMARK   52  A    between atoms: _140  and  _142
REMARK   53  A    between atoms: _142  and  _143
REMARK   54  A    between atoms: _142  and  _145
REMARK   55  A    between atoms: _145  and  _146
REMARK   56  A    between atoms: _149  and  _151
REMARK   57  A    between atoms: _151  and  _152
REMARK   58  A    between atoms: _155  and  _157
REMARK   59  A    between atoms: _157  and  _158
REMARK   60  A    between atoms: _157  and  _160
REMARK   61  A    between atoms: _160  and  _161
REMARK   62  A    between atoms: _164  and  _166
REMARK   63  A    between atoms: _166  and  _167
REMARK   64  A    between atoms: _166  and  _169
REMARK   65  A    between atoms: _169  and  _170
REMARK   66  A    between atoms: _173  and  _175
REMARK   67  A    between atoms: _175  and  _176
REMARK   68  A    between atoms: _175  and  _178
REMARK   69  A    between atoms: _181  and  _183
REMARK   70  A    between atoms: _183  and  _184
REMARK   71  A    between atoms: _183  and  _186
REMARK   72  A    between atoms: _186  and  _187
REMARK   73  A    between atoms: _189  and  _191
REMARK   74  A    between atoms: _191  and  _192
REMARK   75  A    between atoms: _191  and  _194
REMARK   76  A    between atoms: _194  and  _195
REMARK   77  A    between atoms: _200  and  _201
REMARK   78  A    between atoms: _203  and  _205
REMARK   79  A    between atoms: _205  and  _206
REMARK   80  A    between atoms: _205  and  _208
REMARK   81  A    between atoms: _208  and  _209
REMARK   82  A    between atoms: _211  and  _213
REMARK   83  A    between atoms: _213  and  _214
REMARK   84  A    between atoms: _213  and  _216
REMARK   85  A    between atoms: _216  and  _217
REMARK   86  A    between atoms: _220  and  _222
REMARK   87  A    between atoms: _222  and  _223
REMARK   88  A    between atoms: _222  and  _225
REMARK   89  A    between atoms: _225  and  _226
REMARK   90  A    between atoms: _226  and  _227
REMARK   91  A    between atoms: _227  and  _228
REMARK   92  A    between atoms: _228  and  _229
REMARK   93  A    between atoms: _233  and  _235
REMARK   94  A    between atoms: _235  and  _236
REMARK   95  A    between atoms: _235  and  _238
REMARK   96  A    between atoms: _241  and  _243
REMARK   97  A    between atoms: _243  and  _244
REMARK   98  A    between atoms: _247  and  _249
REMARK   99  A    between atoms: _249  and  _250
REMARK  100  A    between atoms: _249  and  _252
REMARK  101  A    between atoms: _252  and  _253
REMARK  102  A    between atoms: _256  and  _258
REMARK  103  A    between atoms: _258  and  _259
REMARK  104  A    between atoms: _258  and  _261
REMARK  105  A    between atoms: _261  and  _262
REMARK  106  A    between atoms: _262  and  _263
REMARK  107  A    between atoms: _266  and  _268
REMARK  108  A    between atoms: _268  and  _269
REMARK  109  A    between atoms: _268  and  _271
REMARK  110  A    between atoms: _274  and  _276
REMARK  111  A    between atoms: _276  and  _277
REMARK  112  A    between atoms: _276  and  _279
REMARK  113  A    between atoms: _279  and  _280
REMARK  114  A    between atoms: _283  and  _285
REMARK  115  A    between atoms: _285  and  _286
REMARK  116  A    between atoms: _285  and  _288
REMARK  117  A    between atoms: _288  and  _289
REMARK  118  A    between atoms: _289  and  _290
REMARK  119  A    between atoms: _292  and  _294
REMARK  120  A    between atoms: _294  and  _295
REMARK  121  A    between atoms: _294  and  _297
REMARK  122  A    between atoms: _297  and  _298
REMARK  123  A    between atoms: _301  and  _303
REMARK  124  A    between atoms: _303  and  _304
REMARK  125  A    between atoms: _303  and  _306
REMARK  126  A    between atoms: _306  and  _307
REMARK  127  A    between atoms: _307  and  _308
REMARK  128  A    between atoms: _308  and  _309
REMARK  129  A    between atoms: _318  and  _320
REMARK  130  A    between atoms: _320  and  _321
REMARK  131  A    between atoms: _320  and  _323
REMARK  132  A    between atoms: _323  and  _324
REMARK  133  A    between atoms: _326  and  _328
REMARK  134  A    between atoms: _328  and  _329
REMARK  135  A    between atoms: _328  and  _331
REMARK  136  A    between atoms: _331  and  _332
REMARK  137  A    between atoms: _337  and  _339
REMARK  138  A    between atoms: _339  and  _340
REMARK  139  A    between atoms: _339  and  _342
REMARK  140  A    between atoms: _342  and  _343
REMARK  141  A    between atoms: _343  and  _344
REMARK  142  A    between atoms: _349  and  _351
REMARK  143  A    between atoms: _351  and  _352
REMARK  144  A    between atoms: _351  and  _354
REMARK  145  A    between atoms: _354  and  _355
REMARK  146  A    between atoms: _357  and  _359
REMARK  147  A    between atoms: _359  and  _360
REMARK  148  A    between atoms: _359  and  _362
REMARK  149  A    between atoms: _362  and  _363
REMARK  150  A    between atoms: _369  and  _371
REMARK  151  A    between atoms: _371  and  _372
REMARK  152  A    between atoms: _371  and  _374
REMARK  153  A    between atoms: _374  and  _375
REMARK  154  A    between atoms: _377  and  _379
REMARK  155  A    between atoms: _379  and  _380
REMARK  156  A    between atoms: _379  and  _382
REMARK  157  A    between atoms: _382  and  _383
REMARK  158  A    between atoms: _393  and  _395
REMARK  159  A    between atoms: _395  and  _396
REMARK  160  A    between atoms: _395  and  _398
REMARK  161  A    between atoms: _398  and  _399
REMARK  162  A    between atoms: _402  and  _404
REMARK  163  A    between atoms: _404  and  _405
REMARK  164  A    between atoms: _404  and  _407
REMARK  165  A    between atoms: _409  and  _411
REMARK  166  A    between atoms: _411  and  _412
REMARK  167  A    between atoms: _411  and  _414
REMARK  168  A    between atoms: _414  and  _415
REMARK  169  A    between atoms: _420  and  _421
REMARK  170  A    between atoms: _423  and  _425
REMARK  171  A    between atoms: _425  and  _426
REMARK  172  A    between atoms: _425  and  _428
REMARK  173  A    between atoms: _428  and  _429
REMARK  174  A    between atoms: _429  and  _430
REMARK  175  A    between atoms: _430  and  _431
REMARK  176  A    between atoms: _431  and  _432
REMARK  177  A    between atoms: _436  and  _438
REMARK  178  A    between atoms: _438  and  _439
REMARK  179  A    between atoms: _438  and  _441
REMARK  180  A    between atoms: _441  and  _442
REMARK  181  A    between atoms: _447  and  _448
REMARK  182  A    between atoms: _450  and  _452
REMARK  183  A    between atoms: _452  and  _453
REMARK  184  A    between atoms: _452  and  _455
REMARK  185  A    between atoms: _455  and  _456
REMARK  186  A    between atoms: _459  and  _461
REMARK  187  A    between atoms: _461  and  _462
REMARK  188  A    between atoms: _461  and  _464
REMARK  189  A    between atoms: _464  and  _465
REMARK  190  A    between atoms: _468  and  _470
REMARK  191  A    between atoms: _470  and  _471
REMARK  192  A    between atoms: _470  and  _473
REMARK  193  A    between atoms: _476  and  _478
REMARK  194  A    between atoms: _478  and  _479
REMARK  195  A    between atoms: _478  and  _481
REMARK  196  A    between atoms: _481  and  _482
REMARK  197  A    between atoms: _484  and  _486
REMARK  198  A    between atoms: _486  and  _487
REMARK  199  A    between atoms: _490  and  _492
REMARK  200  A    between atoms: _492  and  _493
REMARK  201  A    between atoms: _495  and  _497
REMARK  202  A    between atoms: _497  and  _498
REMARK  203  A    between atoms: _497  and  _500
REMARK  204  A    between atoms: _500  and  _501
REMARK  205  A    between atoms: _506  and  _508
REMARK  206  A    between atoms: _508  and  _509
REMARK  207  A    between atoms: _508  and  _511
REMARK  208  A    between atoms: _511  and  _512
REMARK  209  A    between atoms: _515  and  _517
REMARK  210  A    between atoms: _517  and  _518
REMARK  211  A    between atoms: _517  and  _520
REMARK  212  A    between atoms: _520  and  _521
REMARK  213  A    between atoms: _524  and  _526
REMARK  214  A    between atoms: _526  and  _527
REMARK  215  A    between atoms: _526  and  _529
REMARK  216  A    between atoms: _529  and  _530
REMARK  217  A    between atoms: _533  and  _535
REMARK  218  A    between atoms: _535  and  _536
REMARK  219  A    between atoms: _535  and  _538
REMARK  220  A    between atoms: _538  and  _539
REMARK  221  A    between atoms: _545  and  _547
REMARK  222  A    between atoms: _547  and  _548
REMARK  223  A    between atoms: _547  and  _550
REMARK  224  A    between atoms: _550  and  _551
REMARK  225  A    between atoms: _551  and  _552
REMARK  226  A    between atoms: _557  and  _559
REMARK  227  A    between atoms: _559  and  _560
REMARK  228  A    between atoms: _559  and  _562
REMARK  229  A    between atoms: _562  and  _563
REMARK  230  A    between atoms: _566  and  _568
REMARK  231  A    between atoms: _568  and  _569
REMARK  232  A    between atoms: _568  and  _571
REMARK  233  A    between atoms: _571  and  _572
REMARK  234  A    between atoms: _572  and  _573
REMARK  235  A    between atoms: _576  and  _578
REMARK  236  A    between atoms: _578  and  _579
REMARK  237  A    between atoms: _578  and  _581
REMARK  238  A    between atoms: _581  and  _582
REMARK  239  A    between atoms: _587  and  _589
REMARK  240  A    between atoms: _589  and  _590
REMARK  241  A    between atoms: _589  and  _592
REMARK  242  A    between atoms: _592  and  _593
REMARK  243  A    between atoms: _595  and  _597
REMARK  244  A    between atoms: _597  and  _598
REMARK  245  A    between atoms: _597  and  _600
REMARK  246  A    between atoms: _600  and  _601
REMARK  247  A    between atoms: _601  and  _602
REMARK  248  A    between atoms: _607  and  _609
REMARK  249  A    between atoms: _609  and  _610
REMARK  250  A    between atoms: _609  and  _612
REMARK  251  A    between atoms: _612  and  _613
REMARK  252  A    between atoms: _618  and  _619
REMARK  253  A    between atoms: _621  and  _623
REMARK  254  A    between atoms: _623  and  _624
REMARK  255  A    between atoms: _623  and  _626
REMARK  256  A    between atoms: _626  and  _627
REMARK  257  A    between atoms: _627  and  _628
REMARK  258  A    between atoms: _628  and  _629
REMARK  259  A    between atoms: _638  and  _640
REMARK  260  A    between atoms: _640  and  _641
REMARK  261  A    between atoms: _640  and  _643
REMARK  262  A    between atoms: _643  and  _644
REMARK  263  A    between atoms: _647  and  _649
REMARK  264  A    between atoms: _649  and  _650
REMARK  265  A    between atoms: _649  and  _652
REMARK  266  A    between atoms: _652  and  _653
REMARK  267  A    between atoms: _655  and  _657
REMARK  268  A    between atoms: _657  and  _658
REMARK  269  A    between atoms: _657  and  _660
REMARK  270  A    between atoms: _660  and  _661
REMARK  271  A    between atoms: _666  and  _668
REMARK  272  A    between atoms: _668  and  _669
REMARK  273  A    between atoms: _668  and  _671
REMARK  274  A    between atoms: _671  and  _672
REMARK  275  A    between atoms: _672  and  _673
REMARK  276  A    between atoms: _673  and  _674
REMARK  277  A    between atoms: _674  and  _675
REMARK  278  A    between atoms: _679  and  _681
REMARK  279  A    between atoms: _681  and  _682
REMARK  280  A    between atoms: _681  and  _684
REMARK  281  A    between atoms: _684  and  _685
REMARK  282  A    between atoms: _688  and  _690
REMARK  283  A    between atoms: _690  and  _691
REMARK  284  A    between atoms: _690  and  _693
REMARK  285  A    between atoms: _693  and  _694
REMARK  286  A    between atoms: _697  and  _699
REMARK  287  A    between atoms: _699  and  _700
REMARK  288  A    between atoms: _699  and  _702
REMARK  289  A    between atoms: _705  and  _707
REMARK  290  A    between atoms: _707  and  _708
REMARK  291  A    between atoms: _707  and  _710
REMARK  292  A    between atoms: _710  and  _711
REMARK                            x       y       z     vdW  Elec       q    Type
REMARK                         _______ _______ _______ _____ _____    ______ ____
ROOT
ATOM      1  O   HOH     1      54.585   6.540   5.050  0.00  0.00    +0.000 OA
ENDROOT
TORSDOF 0
REMARK  Name = ../refined-set-2016/1rjk/1rjk_pocket.pdb
REMARK  292 active torsions:
REMARK  status: ('A' for Active; 'I' for Inactive)
REMARK    1  A    between atoms: _1  and  _3
REMARK    2  A    between atoms: _3  and  _4
REMARK    3  A    between atoms: _3  and  _6
REMARK    4  A    between atoms: _6  and  _7
REMARK    5  A    between atoms: _10  and  _12
REMARK    6  A    between atoms: _12  and  _13
REMARK    7  A    between atoms: _12  and  _15
REMARK    8  A    between atoms: _15  and  _16
REMARK    9  A    between atoms: _21  and  _22
REMARK   10  A    between atoms: _24  and  _26
REMARK   11  A    between atoms: _26  and  _27
REMARK   12  A    between atoms: _26  and  _29
REMARK   13  A    between atoms: _29  and  _30
REMARK   14  A    between atoms: _34  and  _35
REMARK   15  A    between atoms: _40  and  _42
REMARK   16  A    between atoms: _42  and  _43
REMARK   17  A    between atoms: _42  and  _45
REMARK   18  A    between atoms: _45  and  _46
REMARK   19  A    between atoms: _51  and  _52
REMARK   20  A    between atoms: _54  and  _56
REMARK   21  A    between atoms: _56  and  _57
REMARK   22  A    between atoms: _56  and  _59
REMARK   23  A    between atoms: _59  and  _60
REMARK   24  A    between atoms: _66  and  _68
REMARK   25  A    between atoms: _68  and  _69
REMARK   26  A    between atoms: _68  and  _71
REMARK   27  A    between atoms: _71  and  _72
REMARK   28  A    between atoms: _78  and  _80
REMARK   29  A    between atoms: _80  and  _81
REMARK   30  A    between atoms: _80  and  _83
REMARK   31  A    between atoms: _83  and  _84
REMARK   32  A    between atoms: _84  and  _85
REMARK   33  A    between atoms: _85  and  _86
REMARK   34  A    between atoms: _95  and  _97
REMARK   35  A    between atoms: _97  and  _98
REMARK   36  A    between atoms: _97  and  _100
REMARK   37  A    between atoms: _100  and  _101
REMARK   38  A    between atoms: _104  and  _106
REMARK   39  A    between atoms: _106  and  _107
REMARK   40  A    between atoms: _106  and  _109
REMARK   41  A    between atoms: _109  and  _110
REMARK   42  A    between atoms: _110  and  _111
REMARK   43  A    between atoms: _113  and  _115
REMARK   44  A    between atoms: _115  and  _116
REMARK   45  A    between atoms: _115  and  _118
REMARK   46  A    between atoms: _118  and  _119
REMARK   47  A    between atoms: _123  and  _124
REMARK   48  A    between atoms: _129  and  _131
REMARK   49  A    between atoms: _131  and  _132
REMARK   50  A    between atoms: _131  and  _134
REMARK   51  A    between atoms: _134  and  _135
REMARK   52  A    between atoms: _140  and  _142
REMARK   53  A    between atoms: _142  and  _143
REMARK   54  A    between atoms: _142  and  _145
REMARK   55  A    between atoms: _145  and  _146
REMARK   56  A    between atoms: _149  and  _151
REMARK   57  A    between atoms: _151  and  _152
REMARK   58  A    between atoms: _155  and  _157
REMARK   59  A    between atoms: _157  and  _158
REMARK   60  A    between atoms: _157  and  _160
REMARK   61  A    between atoms: _160  and  _161
REMARK   62  A    between atoms: _164  and  _166
REMARK   63  A    between atoms: _166  and  _167
REMARK   64  A    between atoms: _166  and  _169
REMARK   65  A    between atoms: _169  and  _170
REMARK   66  A    between atoms: _173  and  _175
REMARK   67  A    between atoms: _175  and  _176
REMARK   68  A    between atoms: _175  and  _178
REMARK   69  A    between atoms: _181  and  _183
REMARK   70  A    between atoms: _183  and  _184
REMARK   71  A    between atoms: _183  and  _186
REMARK   72  A    between atoms: _186  and  _187
REMARK   73  A    between atoms: _189  and  _191
REMARK   74  A    between atoms: _191  and  _192
REMARK   75  A    between atoms: _191  and  _194
REMARK   76  A    between atoms: _194  and  _195
REMARK   77  A    between atoms: _200  and  _201
REMARK   78  A    between atoms: _203  and  _205
REMARK   79  A    between atoms: _205  and  _206
REMARK   80  A    between atoms: _205  and  _208
REMARK   81  A    between atoms: _208  and  _209
REMARK   82  A    between atoms: _211  and  _213
REMARK   83  A    between atoms: _213  and  _214
REMARK   84  A    between atoms: _213  and  _216
REMARK   85  A    between atoms: _216  and  _217
REMARK   86  A    between atoms: _220  and  _222
REMARK   87  A    between atoms: _222  and  _223
REMARK   88  A    between atoms: _222  and  _225
REMARK   89  A    between atoms: _225  and  _226
REMARK   90  A    between atoms: _226  and  _227
REMARK   91  A    between atoms: _227  and  _228
REMARK   92  A    between atoms: _228  and  _229
REMARK   93  A    between atoms: _233  and  _235
REMARK   94  A    between atoms: _235  and  _236
REMARK   95  A    between atoms: _235  and  _238
REMARK   96  A    between atoms: _241  and  _243
REMARK   97  A    between atoms: _243  and  _244
REMARK   98  A    between atoms: _247  and  _249
REMARK   99  A    between atoms: _249  and  _250
REMARK  100  A    between atoms: _249  and  _252
REMARK  101  A    between atoms: _252  and  _253
REMARK  102  A    between atoms: _256  and  _258
REMARK  103  A    between atoms: _258  and  _259
REMARK  104  A    between atoms: _258  and  _261
REMARK  105  A    between atoms: _261  and  _262
REMARK  106  A    between atoms: _262  and  _263
REMARK  107  A    between atoms: _266  and  _268
REMARK  108  A    between atoms: _268  and  _269
REMARK  109  A    between atoms: _268  and  _271
REMARK  110  A    between atoms: _274  and  _276
REMARK  111  A    between atoms: _276  and  _277
REMARK  112  A    between atoms: _276  and  _279
REMARK  113  A    between atoms: _279  and  _280
REMARK  114  A    between atoms: _283  and  _285
REMARK  115  A    between atoms: _285  and  _286
REMARK  116  A    between atoms: _285  and  _288
REMARK  117  A    between atoms: _288  and  _289
REMARK  118  A    between atoms: _289  and  _290
REMARK  119  A    between atoms: _292  and  _294
REMARK  120  A    between atoms: _294  and  _295
REMARK  121  A    between atoms: _294  and  _297
REMARK  122  A    between atoms: _297  and  _298
REMARK  123  A    between atoms: _301  and  _303
REMARK  124  A    between atoms: _303  and  _304
REMARK  125  A    between atoms: _303  and  _306
REMARK  126  A    between atoms: _306  and  _307
REMARK  127  A    between atoms: _307  and  _308
REMARK  128  A    between atoms: _308  and  _309
REMARK  129  A    between atoms: _318  and  _320
REMARK  130  A    between atoms: _320  and  _321
REMARK  131  A    between atoms: _320  and  _323
REMARK  132  A    between atoms: _323  and  _324
REMARK  133  A    between atoms: _326  and  _328
REMARK  134  A    between atoms: _328  and  _329
REMARK  135  A    between atoms: _328  and  _331
REMARK  136  A    between atoms: _331  and  _332
REMARK  137  A    between atoms: _337  and  _339
REMARK  138  A    between atoms: _339  and  _340
REMARK  139  A    between atoms: _339  and  _342
REMARK  140  A    between atoms: _342  and  _343
REMARK  141  A    between atoms: _343  and  _344
REMARK  142  A    between atoms: _349  and  _351
REMARK  143  A    between atoms: _351  and  _352
REMARK  144  A    between atoms: _351  and  _354
REMARK  145  A    between atoms: _354  and  _355
REMARK  146  A    between atoms: _357  and  _359
REMARK  147  A    between atoms: _359  and  _360
REMARK  148  A    between atoms: _359  and  _362
REMARK  149  A    between atoms: _362  and  _363
REMARK  150  A    between atoms: _369  and  _371
REMARK  151  A    between atoms: _371  and  _372
REMARK  152  A    between atoms: _371  and  _374
REMARK  153  A    between atoms: _374  and  _375
REMARK  154  A    between atoms: _377  and  _379
REMARK  155  A    between atoms: _379  and  _380
REMARK  156  A    between atoms: _379  and  _382
REMARK  157  A    between atoms: _382  and  _383
REMARK  158  A    between atoms: _393  and  _395
REMARK  159  A    between atoms: _395  and  _396
REMARK  160  A    between atoms: _395  and  _398
REMARK  161  A    between atoms: _398  and  _399
REMARK  162  A    between atoms: _402  and  _404
REMARK  163  A    between atoms: _404  and  _405
REMARK  164  A    between atoms: _404  and  _407
REMARK  165  A    between atoms: _409  and  _411
REMARK  166  A    between atoms: _411  and  _412
REMARK  167  A    between atoms: _411  and  _414
REMARK  168  A    between atoms: _414  and  _415
REMARK  169  A    between atoms: _420  and  _421
REMARK  170  A    between atoms: _423  and  _425
REMARK  171  A    between atoms: _425  and  _426
REMARK  172  A    between atoms: _425  and  _428
REMARK  173  A    between atoms: _428  and  _429
REMARK  174  A    between atoms: _429  and  _430
REMARK  175  A    between atoms: _430  and  _431
REMARK  176  A    between atoms: _431  and  _432
REMARK  177  A    between atoms: _436  and  _438
REMARK  178  A    between atoms: _438  and  _439
REMARK  179  A    between atoms: _438  and  _441
REMARK  180  A    between atoms: _441  and  _442
REMARK  181  A    between atoms: _447  and  _448
REMARK  182  A    between atoms: _450  and  _452
REMARK  183  A    between atoms: _452  and  _453
REMARK  184  A    between atoms: _452  and  _455
REMARK  185  A    between atoms: _455  and  _456
REMARK  186  A    between atoms: _459  and  _461
REMARK  187  A    between atoms: _461  and  _462
REMARK  188  A    between atoms: _461  and  _464
REMARK  189  A    between atoms: _464  and  _465
REMARK  190  A    between atoms: _468  and  _470
REMARK  191  A    between atoms: _470  and  _471
REMARK  192  A    between atoms: _470  and  _473
REMARK  193  A    between atoms: _476  and  _478
REMARK  194  A    between atoms: _478  and  _479
REMARK  195  A    between atoms: _478  and  _481
REMARK  196  A    between atoms: _481  and  _482
REMARK  197  A    between atoms: _484  and  _486
REMARK  198  A    between atoms: _486  and  _487
REMARK  199  A    between atoms: _490  and  _492
REMARK  200  A    between atoms: _492  and  _493
REMARK  201  A    between atoms: _495  and  _497
REMARK  202  A    between atoms: _497  and  _498
REMARK  203  A    between atoms: _497  and  _500
REMARK  204  A    between atoms: _500  and  _501
REMARK  205  A    between atoms: _506  and  _508
REMARK  206  A    between atoms: _508  and  _509
REMARK  207  A    between atoms: _508  and  _511
REMARK  208  A    between atoms: _511  and  _512
REMARK  209  A    between atoms: _515  and  _517
REMARK  210  A    between atoms: _517  and  _518
REMARK  211  A    between atoms: _517  and  _520
REMARK  212  A    between atoms: _520  and  _521
REMARK  213  A    between atoms: _524  and  _526
REMARK  214  A    between atoms: _526  and  _527
REMARK  215  A    between atoms: _526  and  _529
REMARK  216  A    between atoms: _529  and  _530
REMARK  217  A    between atoms: _533  and  _535
REMARK  218  A    between atoms: _535  and  _536
REMARK  219  A    between atoms: _535  and  _538
REMARK  220  A    between atoms: _538  and  _539
REMARK  221  A    between atoms: _545  and  _547
REMARK  222  A    between atoms: _547  and  _548
REMARK  223  A    between atoms: _547  and  _550
REMARK  224  A    between atoms: _550  and  _551
REMARK  225  A    between atoms: _551  and  _552
REMARK  226  A    between atoms: _557  and  _559
REMARK  227  A    between atoms: _559  and  _560
REMARK  228  A    between atoms: _559  and  _562
REMARK  229  A    between atoms: _562  and  _563
REMARK  230  A    between atoms: _566  and  _568
REMARK  231  A    between atoms: _568  and  _569
REMARK  232  A    between atoms: _568  and  _571
REMARK  233  A    between atoms: _571  and  _572
REMARK  234  A    between atoms: _572  and  _573
REMARK  235  A    between atoms: _576  and  _578
REMARK  236  A    between atoms: _578  and  _579
REMARK  237  A    between atoms: _578  and  _581
REMARK  238  A    between atoms: _581  and  _582
REMARK  239  A    between atoms: _587  and  _589
REMARK  240  A    between atoms: _589  and  _590
REMARK  241  A    between atoms: _589  and  _592
REMARK  242  A    between atoms: _592  and  _593
REMARK  243  A    between atoms: _595  and  _597
REMARK  244  A    between atoms: _597  and  _598
REMARK  245  A    between atoms: _597  and  _600
REMARK  246  A    between atoms: _600  and  _601
REMARK  247  A    between atoms: _601  and  _602
REMARK  248  A    between atoms: _607  and  _609
REMARK  249  A    between atoms: _609  and  _610
REMARK  250  A    between atoms: _609  and  _612
REMARK  251  A    between atoms: _612  and  _613
REMARK  252  A    between atoms: _618  and  _619
REMARK  253  A    between atoms: _621  and  _623
REMARK  254  A    between atoms: _623  and  _624
REMARK  255  A    between atoms: _623  and  _626
REMARK  256  A    between atoms: _626  and  _627
REMARK  257  A    between atoms: _627  and  _628
REMARK  258  A    between atoms: _628  and  _629
REMARK  259  A    between atoms: _638  and  _640
REMARK  260  A    between atoms: _640  and  _641
REMARK  261  A    between atoms: _640  and  _643
REMARK  262  A    between atoms: _643  and  _644
REMARK  263  A    between atoms: _647  and  _649
REMARK  264  A    between atoms: _649  and  _650
REMARK  265  A    between atoms: _649  and  _652
REMARK  266  A    between atoms: _652  and  _653
REMARK  267  A    between atoms: _655  and  _657
REMARK  268  A    between atoms: _657  and  _658
REMARK  269  A    between atoms: _657  and  _660
REMARK  270  A    between atoms: _660  and  _661
REMARK  271  A    between atoms: _666  and  _668
REMARK  272  A    between atoms: _668  and  _669
REMARK  273  A    between atoms: _668  and  _671
REMARK  274  A    between atoms: _671  and  _672
REMARK  275  A    between atoms: _672  and  _673
REMARK  276  A    between atoms: _673  and  _674
REMARK  277  A    between atoms: _674  and  _675
REMARK  278  A    between atoms: _679  and  _681
REMARK  279  A    between atoms: _681  and  _682
REMARK  280  A    between atoms: _681  and  _684
REMARK  281  A    between atoms: _684  and  _685
REMARK  282  A    between atoms: _688  and  _690
REMARK  283  A    between atoms: _690  and  _691
REMARK  284  A    between atoms: _690  and  _693
REMARK  285  A    between atoms: _693  and  _694
REMARK  286  A    between atoms: _697  and  _699
REMARK  287  A    between atoms: _699  and  _700
REMARK  288  A    between atoms: _699  and  _702
REMARK  289  A    between atoms: _705  and  _707
REMARK  290  A    between atoms: _707  and  _708
REMARK  291  A    between atoms: _707  and  _710
REMARK  292  A    between atoms: _710  and  _711
REMARK                            x       y       z     vdW  Elec       q    Type
REMARK                         _______ _______ _______ _____ _____    ______ ____
ROOT
ATOM      1  O   HOH     1      60.819  -7.544  -5.284  0.00  0.00    +0.000 OA
ENDROOT
TORSDOF 0
REMARK  Name = ../refined-set-2016/1rjk/1rjk_pocket.pdb
REMARK  292 active torsions:
REMARK  status: ('A' for Active; 'I' for Inactive)
REMARK    1  A    between atoms: _1  and  _3
REMARK    2  A    between atoms: _3  and  _4
REMARK    3  A    between atoms: _3  and  _6
REMARK    4  A    between atoms: _6  and  _7
REMARK    5  A    between atoms: _10  and  _12
REMARK    6  A    between atoms: _12  and  _13
REMARK    7  A    between atoms: _12  and  _15
REMARK    8  A    between atoms: _15  and  _16
REMARK    9  A    between atoms: _21  and  _22
REMARK   10  A    between atoms: _24  and  _26
REMARK   11  A    between atoms: _26  and  _27
REMARK   12  A    between atoms: _26  and  _29
REMARK   13  A    between atoms: _29  and  _30
REMARK   14  A    between atoms: _34  and  _35
REMARK   15  A    between atoms: _40  and  _42
REMARK   16  A    between atoms: _42  and  _43
REMARK   17  A    between atoms: _42  and  _45
REMARK   18  A    between atoms: _45  and  _46
REMARK   19  A    between atoms: _51  and  _52
REMARK   20  A    between atoms: _54  and  _56
REMARK   21  A    between atoms: _56  and  _57
REMARK   22  A    between atoms: _56  and  _59
REMARK   23  A    between atoms: _59  and  _60
REMARK   24  A    between atoms: _66  and  _68
REMARK   25  A    between atoms: _68  and  _69
REMARK   26  A    between atoms: _68  and  _71
REMARK   27  A    between atoms: _71  and  _72
REMARK   28  A    between atoms: _78  and  _80
REMARK   29  A    between atoms: _80  and  _81
REMARK   30  A    between atoms: _80  and  _83
REMARK   31  A    between atoms: _83  and  _84
REMARK   32  A    between atoms: _84  and  _85
REMARK   33  A    between atoms: _85  and  _86
REMARK   34  A    between atoms: _95  and  _97
REMARK   35  A    between atoms: _97  and  _98
REMARK   36  A    between atoms: _97  and  _100
REMARK   37  A    between atoms: _100  and  _101
REMARK   38  A    between atoms: _104  and  _106
REMARK   39  A    between atoms: _106  and  _107
REMARK   40  A    between atoms: _106  and  _109
REMARK   41  A    between atoms: _109  and  _110
REMARK   42  A    between atoms: _110  and  _111
REMARK   43  A    between atoms: _113  and  _115
REMARK   44  A    between atoms: _115  and  _116
REMARK   45  A    between atoms: _115  and  _118
REMARK   46  A    between atoms: _118  and  _119
REMARK   47  A    between atoms: _123  and  _124
REMARK   48  A    between atoms: _129  and  _131
REMARK   49  A    between atoms: _131  and  _132
REMARK   50  A    between atoms: _131  and  _134
REMARK   51  A    between atoms: _134  and  _135
REMARK   52  A    between atoms: _140  and  _142
REMARK   53  A    between atoms: _142  and  _143
REMARK   54  A    between atoms: _142  and  _145
REMARK   55  A    between atoms: _145  and  _146
REMARK   56  A    between atoms: _149  and  _151
REMARK   57  A    between atoms: _151  and  _152
REMARK   58  A    between atoms: _155  and  _157
REMARK   59  A    between atoms: _157  and  _158
REMARK   60  A    between atoms: _157  and  _160
REMARK   61  A    between atoms: _160  and  _161
REMARK   62  A    between atoms: _164  and  _166
REMARK   63  A    between atoms: _166  and  _167
REMARK   64  A    between atoms: _166  and  _169
REMARK   65  A    between atoms: _169  and  _170
REMARK   66  A    between atoms: _173  and  _175
REMARK   67  A    between atoms: _175  and  _176
REMARK   68  A    between atoms: _175  and  _178
REMARK   69  A    between atoms: _181  and  _183
REMARK   70  A    between atoms: _183  and  _184
REMARK   71  A    between atoms: _183  and  _186
REMARK   72  A    between atoms: _186  and  _187
REMARK   73  A    between atoms: _189  and  _191
REMARK   74  A    between atoms: _191  and  _192
REMARK   75  A    between atoms: _191  and  _194
REMARK   76  A    between atoms: _194  and  _195
REMARK   77  A    between atoms: _200  and  _201
REMARK   78  A    between atoms: _203  and  _205
REMARK   79  A    between atoms: _205  and  _206
REMARK   80  A    between atoms: _205  and  _208
REMARK   81  A    between atoms: _208  and  _209
REMARK   82  A    between atoms: _211  and  _213
REMARK   83  A    between atoms: _213  and  _214
REMARK   84  A    between atoms: _213  and  _216
REMARK   85  A    between atoms: _216  and  _217
REMARK   86  A    between atoms: _220  and  _222
REMARK   87  A    between atoms: _222  and  _223
REMARK   88  A    between atoms: _222  and  _225
REMARK   89  A    between atoms: _225  and  _226
REMARK   90  A    between atoms: _226  and  _227
REMARK   91  A    between atoms: _227  and  _228
REMARK   92  A    between atoms: _228  and  _229
REMARK   93  A    between atoms: _233  and  _235
REMARK   94  A    between atoms: _235  and  _236
REMARK   95  A    between atoms: _235  and  _238
REMARK   96  A    between atoms: _241  and  _243
REMARK   97  A    between atoms: _243  and  _244
REMARK   98  A    between atoms: _247  and  _249
REMARK   99  A    between atoms: _249  and  _250
REMARK  100  A    between atoms: _249  and  _252
REMARK  101  A    between atoms: _252  and  _253
REMARK  102  A    between atoms: _256  and  _258
REMARK  103  A    between atoms: _258  and  _259
REMARK  104  A    between atoms: _258  and  _261
REMARK  105  A    between atoms: _261  and  _262
REMARK  106  A    between atoms: _262  and  _263
REMARK  107  A    between atoms: _266  and  _268
REMARK  108  A    between atoms: _268  and  _269
REMARK  109  A    between atoms: _268  and  _271
REMARK  110  A    between atoms: _274  and  _276
REMARK  111  A    between atoms: _276  and  _277
REMARK  112  A    between atoms: _276  and  _279
REMARK  113  A    between atoms: _279  and  _280
REMARK  114  A    between atoms: _283  and  _285
REMARK  115  A    between atoms: _285  and  _286
REMARK  116  A    between atoms: _285  and  _288
REMARK  117  A    between atoms: _288  and  _289
REMARK  118  A    between atoms: _289  and  _290
REMARK  119  A    between atoms: _292  and  _294
REMARK  120  A    between atoms: _294  and  _295
REMARK  121  A    between atoms: _294  and  _297
REMARK  122  A    between atoms: _297  and  _298
REMARK  123  A    between atoms: _301  and  _303
REMARK  124  A    between atoms: _303  and  _304
REMARK  125  A    between atoms: _303  and  _306
REMARK  126  A    between atoms: _306  and  _307
REMARK  127  A    between atoms: _307  and  _308
REMARK  128  A    between atoms: _308  and  _309
REMARK  129  A    between atoms: _318  and  _320
REMARK  130  A    between atoms: _320  and  _321
REMARK  131  A    between atoms: _320  and  _323
REMARK  132  A    between atoms: _323  and  _324
REMARK  133  A    between atoms: _326  and  _328
REMARK  134  A    between atoms: _328  and  _329
REMARK  135  A    between atoms: _328  and  _331
REMARK  136  A    between atoms: _331  and  _332
REMARK  137  A    between atoms: _337  and  _339
REMARK  138  A    between atoms: _339  and  _340
REMARK  139  A    between atoms: _339  and  _342
REMARK  140  A    between atoms: _342  and  _343
REMARK  141  A    between atoms: _343  and  _344
REMARK  142  A    between atoms: _349  and  _351
REMARK  143  A    between atoms: _351  and  _352
REMARK  144  A    between atoms: _351  and  _354
REMARK  145  A    between atoms: _354  and  _355
REMARK  146  A    between atoms: _357  and  _359
REMARK  147  A    between atoms: _359  and  _360
REMARK  148  A    between atoms: _359  and  _362
REMARK  149  A    between atoms: _362  and  _363
REMARK  150  A    between atoms: _369  and  _371
REMARK  151  A    between atoms: _371  and  _372
REMARK  152  A    between atoms: _371  and  _374
REMARK  153  A    between atoms: _374  and  _375
REMARK  154  A    between atoms: _377  and  _379
REMARK  155  A    between atoms: _379  and  _380
REMARK  156  A    between atoms: _379  and  _382
REMARK  157  A    between atoms: _382  and  _383
REMARK  158  A    between atoms: _393  and  _395
REMARK  159  A    between atoms: _395  and  _396
REMARK  160  A    between atoms: _395  and  _398
REMARK  161  A    between atoms: _398  and  _399
REMARK  162  A    between atoms: _402  and  _404
REMARK  163  A    between atoms: _404  and  _405
REMARK  164  A    between atoms: _404  and  _407
REMARK  165  A    between atoms: _409  and  _411
REMARK  166  A    between atoms: _411  and  _412
REMARK  167  A    between atoms: _411  and  _414
REMARK  168  A    between atoms: _414  and  _415
REMARK  169  A    between atoms: _420  and  _421
REMARK  170  A    between atoms: _423  and  _425
REMARK  171  A    between atoms: _425  and  _426
REMARK  172  A    between atoms: _425  and  _428
REMARK  173  A    between atoms: _428  and  _429
REMARK  174  A    between atoms: _429  and  _430
REMARK  175  A    between atoms: _430  and  _431
REMARK  176  A    between atoms: _431  and  _432
REMARK  177  A    between atoms: _436  and  _438
REMARK  178  A    between atoms: _438  and  _439
REMARK  179  A    between atoms: _438  and  _441
REMARK  180  A    between atoms: _441  and  _442
REMARK  181  A    between atoms: _447  and  _448
REMARK  182  A    between atoms: _450  and  _452
REMARK  183  A    between atoms: _452  and  _453
REMARK  184  A    between atoms: _452  and  _455
REMARK  185  A    between atoms: _455  and  _456
REMARK  186  A    between atoms: _459  and  _461
REMARK  187  A    between atoms: _461  and  _462
REMARK  188  A    between atoms: _461  and  _464
REMARK  189  A    between atoms: _464  and  _465
REMARK  190  A    between atoms: _468  and  _470
REMARK  191  A    between atoms: _470  and  _471
REMARK  192  A    between atoms: _470  and  _473
REMARK  193  A    between atoms: _476  and  _478
REMARK  194  A    between atoms: _478  and  _479
REMARK  195  A    between atoms: _478  and  _481
REMARK  196  A    between atoms: _481  and  _482
REMARK  197  A    between atoms: _484  and  _486
REMARK  198  A    between atoms: _486  and  _487
REMARK  199  A    between atoms: _490  and  _492
REMARK  200  A    between atoms: _492  and  _493
REMARK  201  A    between atoms: _495  and  _497
REMARK  202  A    between atoms: _497  and  _498
REMARK  203  A    between atoms: _497  and  _500
REMARK  204  A    between atoms: _500  and  _501
REMARK  205  A    between atoms: _506  and  _508
REMARK  206  A    between atoms: _508  and  _509
REMARK  207  A    between atoms: _508  and  _511
REMARK  208  A    between atoms: _511  and  _512
REMARK  209  A    between atoms: _515  and  _517
REMARK  210  A    between atoms: _517  and  _518
REMARK  211  A    between atoms: _517  and  _520
REMARK  212  A    between atoms: _520  and  _521
REMARK  213  A    between atoms: _524  and  _526
REMARK  214  A    between atoms: _526  and  _527
REMARK  215  A    between atoms: _526  and  _529
REMARK  216  A    between atoms: _529  and  _530
REMARK  217  A    between atoms: _533  and  _535
REMARK  218  A    between atoms: _535  and  _536
REMARK  219  A    between atoms: _535  and  _538
REMARK  220  A    between atoms: _538  and  _539
REMARK  221  A    between atoms: _545  and  _547
REMARK  222  A    between atoms: _547  and  _548
REMARK  223  A    between atoms: _547  and  _550
REMARK  224  A    between atoms: _550  and  _551
REMARK  225  A    between atoms: _551  and  _552
REMARK  226  A    between atoms: _557  and  _559
REMARK  227  A    between atoms: _559  and  _560
REMARK  228  A    between atoms: _559  and  _562
REMARK  229  A    between atoms: _562  and  _563
REMARK  230  A    between atoms: _566  and  _568
REMARK  231  A    between atoms: _568  and  _569
REMARK  232  A    between atoms: _568  and  _571
REMARK  233  A    between atoms: _571  and  _572
REMARK  234  A    between atoms: _572  and  _573
REMARK  235  A    between atoms: _576  and  _578
REMARK  236  A    between atoms: _578  and  _579
REMARK  237  A    between atoms: _578  and  _581
REMARK  238  A    between atoms: _581  and  _582
REMARK  239  A    between atoms: _587  and  _589
REMARK  240  A    between atoms: _589  and  _590
REMARK  241  A    between atoms: _589  and  _592
REMARK  242  A    between atoms: _592  and  _593
REMARK  243  A    between atoms: _595  and  _597
REMARK  244  A    between atoms: _597  and  _598
REMARK  245  A    between atoms: _597  and  _600
REMARK  246  A    between atoms: _600  and  _601
REMARK  247  A    between atoms: _601  and  _602
REMARK  248  A    between atoms: _607  and  _609
REMARK  249  A    between atoms: _609  and  _610
REMARK  250  A    between atoms: _609  and  _612
REMARK  251  A    between atoms: _612  and  _613
REMARK  252  A    between atoms: _618  and  _619
REMARK  253  A    between atoms: _621  and  _623
REMARK  254  A    between atoms: _623  and  _624
REMARK  255  A    between atoms: _623  and  _626
REMARK  256  A    between atoms: _626  and  _627
REMARK  257  A    between atoms: _627  and  _628
REMARK  258  A    between atoms: _628  and  _629
REMARK  259  A    between atoms: _638  and  _640
REMARK  260  A    between atoms: _640  and  _641
REMARK  261  A    between atoms: _640  and  _643
REMARK  262  A    between atoms: _643  and  _644
REMARK  263  A    between atoms: _647  and  _649
REMARK  264  A    between atoms: _649  and  _650
REMARK  265  A    between atoms: _649  and  _652
REMARK  266  A    between atoms: _652  and  _653
REMARK  267  A    between atoms: _655  and  _657
REMARK  268  A    between atoms: _657  and  _658
REMARK  269  A    between atoms: _657  and  _660
REMARK  270  A    between atoms: _660  and  _661
REMARK  271  A    between atoms: _666  and  _668
REMARK  272  A    between atoms: _668  and  _669
REMARK  273  A    between atoms: _668  and  _671
REMARK  274  A    between atoms: _671  and  _672
REMARK  275  A    between atoms: _672  and  _673
REMARK  276  A    between atoms: _673  and  _674
REMARK  277  A    between atoms: _674  and  _675
REMARK  278  A    between atoms: _679  and  _681
REMARK  279  A    between atoms: _681  and  _682
REMARK  280  A    between atoms: _681  and  _684
REMARK  281  A    between atoms: _684  and  _685
REMARK  282  A    between atoms: _688  and  _690
REMARK  283  A    between atoms: _690  and  _691
REMARK  284  A    between atoms: _690  and  _693
REMARK  285  A    between atoms: _693  and  _694
REMARK  286  A    between atoms: _697  and  _699
REMARK  287  A    between atoms: _699  and  _700
REMARK  288  A    between atoms: _699  and  _702
REMARK  289  A    between atoms: _705  and  _707
REMARK  290  A    between atoms: _707  and  _708
REMARK  291  A    between atoms: _707  and  _710
REMARK  292  A    between atoms: _710  and  _711
REMARK                            x       y       z     vdW  Elec       q    Type
REMARK                         _______ _______ _______ _____ _____    ______ ____
ROOT
ATOM      1  O   HOH     1      65.307  10.584   7.192  0.00  0.00    +0.000 OA
ENDROOT
TORSDOF 0
REMARK  Name = ../refined-set-2016/1rjk/1rjk_pocket.pdb
REMARK  292 active torsions:
REMARK  status: ('A' for Active; 'I' for Inactive)
REMARK    1  A    between atoms: _1  and  _3
REMARK    2  A    between atoms: _3  and  _4
REMARK    3  A    between atoms: _3  and  _6
REMARK    4  A    between atoms: _6  and  _7
REMARK    5  A    between atoms: _10  and  _12
REMARK    6  A    between atoms: _12  and  _13
REMARK    7  A    between atoms: _12  and  _15
REMARK    8  A    between atoms: _15  and  _16
REMARK    9  A    between atoms: _21  and  _22
REMARK   10  A    between atoms: _24  and  _26
REMARK   11  A    between atoms: _26  and  _27
REMARK   12  A    between atoms: _26  and  _29
REMARK   13  A    between atoms: _29  and  _30
REMARK   14  A    between atoms: _34  and  _35
REMARK   15  A    between atoms: _40  and  _42
REMARK   16  A    between atoms: _42  and  _43
REMARK   17  A    between atoms: _42  and  _45
REMARK   18  A    between atoms: _45  and  _46
REMARK   19  A    between atoms: _51  and  _52
REMARK   20  A    between atoms: _54  and  _56
REMARK   21  A    between atoms: _56  and  _57
REMARK   22  A    between atoms: _56  and  _59
REMARK   23  A    between atoms: _59  and  _60
REMARK   24  A    between atoms: _66  and  _68
REMARK   25  A    between atoms: _68  and  _69
REMARK   26  A    between atoms: _68  and  _71
REMARK   27  A    between atoms: _71  and  _72
REMARK   28  A    between atoms: _78  and  _80
REMARK   29  A    between atoms: _80  and  _81
REMARK   30  A    between atoms: _80  and  _83
REMARK   31  A    between atoms: _83  and  _84
REMARK   32  A    between atoms: _84  and  _85
REMARK   33  A    between atoms: _85  and  _86
REMARK   34  A    between atoms: _95  and  _97
REMARK   35  A    between atoms: _97  and  _98
REMARK   36  A    between atoms: _97  and  _100
REMARK   37  A    between atoms: _100  and  _101
REMARK   38  A    between atoms: _104  and  _106
REMARK   39  A    between atoms: _106  and  _107
REMARK   40  A    between atoms: _106  and  _109
REMARK   41  A    between atoms: _109  and  _110
REMARK   42  A    between atoms: _110  and  _111
REMARK   43  A    between atoms: _113  and  _115
REMARK   44  A    between atoms: _115  and  _116
REMARK   45  A    between atoms: _115  and  _118
REMARK   46  A    between atoms: _118  and  _119
REMARK   47  A    between atoms: _123  and  _124
REMARK   48  A    between atoms: _129  and  _131
REMARK   49  A    between atoms: _131  and  _132
REMARK   50  A    between atoms: _131  and  _134
REMARK   51  A    between atoms: _134  and  _135
REMARK   52  A    between atoms: _140  and  _142
REMARK   53  A    between atoms: _142  and  _143
REMARK   54  A    between atoms: _142  and  _145
REMARK   55  A    between atoms: _145  and  _146
REMARK   56  A    between atoms: _149  and  _151
REMARK   57  A    between atoms: _151  and  _152
REMARK   58  A    between atoms: _155  and  _157
REMARK   59  A    between atoms: _157  and  _158
REMARK   60  A    between atoms: _157  and  _160
REMARK   61  A    between atoms: _160  and  _161
REMARK   62  A    between atoms: _164  and  _166
REMARK   63  A    between atoms: _166  and  _167
REMARK   64  A    between atoms: _166  and  _169
REMARK   65  A    between atoms: _169  and  _170
REMARK   66  A    between atoms: _173  and  _175
REMARK   67  A    between atoms: _175  and  _176
REMARK   68  A    between atoms: _175  and  _178
REMARK   69  A    between atoms: _181  and  _183
REMARK   70  A    between atoms: _183  and  _184
REMARK   71  A    between atoms: _183  and  _186
REMARK   72  A    between atoms: _186  and  _187
REMARK   73  A    between atoms: _189  and  _191
REMARK   74  A    between atoms: _191  and  _192
REMARK   75  A    between atoms: _191  and  _194
REMARK   76  A    between atoms: _194  and  _195
REMARK   77  A    between atoms: _200  and  _201
REMARK   78  A    between atoms: _203  and  _205
REMARK   79  A    between atoms: _205  and  _206
REMARK   80  A    between atoms: _205  and  _208
REMARK   81  A    between atoms: _208  and  _209
REMARK   82  A    between atoms: _211  and  _213
REMARK   83  A    between atoms: _213  and  _214
REMARK   84  A    between atoms: _213  and  _216
REMARK   85  A    between atoms: _216  and  _217
REMARK   86  A    between atoms: _220  and  _222
REMARK   87  A    between atoms: _222  and  _223
REMARK   88  A    between atoms: _222  and  _225
REMARK   89  A    between atoms: _225  and  _226
REMARK   90  A    between atoms: _226  and  _227
REMARK   91  A    between atoms: _227  and  _228
REMARK   92  A    between atoms: _228  and  _229
REMARK   93  A    between atoms: _233  and  _235
REMARK   94  A    between atoms: _235  and  _236
REMARK   95  A    between atoms: _235  and  _238
REMARK   96  A    between atoms: _241  and  _243
REMARK   97  A    between atoms: _243  and  _244
REMARK   98  A    between atoms: _247  and  _249
REMARK   99  A    between atoms: _249  and  _250
REMARK  100  A    between atoms: _249  and  _252
REMARK  101  A    between atoms: _252  and  _253
REMARK  102  A    between atoms: _256  and  _258
REMARK  103  A    between atoms: _258  and  _259
REMARK  104  A    between atoms: _258  and  _261
REMARK  105  A    between atoms: _261  and  _262
REMARK  106  A    between atoms: _262  and  _263
REMARK  107  A    between atoms: _266  and  _268
REMARK  108  A    between atoms: _268  and  _269
REMARK  109  A    between atoms: _268  and  _271
REMARK  110  A    between atoms: _274  and  _276
REMARK  111  A    between atoms: _276  and  _277
REMARK  112  A    between atoms: _276  and  _279
REMARK  113  A    between atoms: _279  and  _280
REMARK  114  A    between atoms: _283  and  _285
REMARK  115  A    between atoms: _285  and  _286
REMARK  116  A    between atoms: _285  and  _288
REMARK  117  A    between atoms: _288  and  _289
REMARK  118  A    between atoms: _289  and  _290
REMARK  119  A    between atoms: _292  and  _294
REMARK  120  A    between atoms: _294  and  _295
REMARK  121  A    between atoms: _294  and  _297
REMARK  122  A    between atoms: _297  and  _298
REMARK  123  A    between atoms: _301  and  _303
REMARK  124  A    between atoms: _303  and  _304
REMARK  125  A    between atoms: _303  and  _306
REMARK  126  A    between atoms: _306  and  _307
REMARK  127  A    between atoms: _307  and  _308
REMARK  128  A    between atoms: _308  and  _309
REMARK  129  A    between atoms: _318  and  _320
REMARK  130  A    between atoms: _320  and  _321
REMARK  131  A    between atoms: _320  and  _323
REMARK  132  A    between atoms: _323  and  _324
REMARK  133  A    between atoms: _326  and  _328
REMARK  134  A    between atoms: _328  and  _329
REMARK  135  A    between atoms: _328  and  _331
REMARK  136  A    between atoms: _331  and  _332
REMARK  137  A    between atoms: _337  and  _339
REMARK  138  A    between atoms: _339  and  _340
REMARK  139  A    between atoms: _339  and  _342
REMARK  140  A    between atoms: _342  and  _343
REMARK  141  A    between atoms: _343  and  _344
REMARK  142  A    between atoms: _349  and  _351
REMARK  143  A    between atoms: _351  and  _352
REMARK  144  A    between atoms: _351  and  _354
REMARK  145  A    between atoms: _354  and  _355
REMARK  146  A    between atoms: _357  and  _359
REMARK  147  A    between atoms: _359  and  _360
REMARK  148  A    between atoms: _359  and  _362
REMARK  149  A    between atoms: _362  and  _363
REMARK  150  A    between atoms: _369  and  _371
REMARK  151  A    between atoms: _371  and  _372
REMARK  152  A    between atoms: _371  and  _374
REMARK  153  A    between atoms: _374  and  _375
REMARK  154  A    between atoms: _377  and  _379
REMARK  155  A    between atoms: _379  and  _380
REMARK  156  A    between atoms: _379  and  _382
REMARK  157  A    between atoms: _382  and  _383
REMARK  158  A    between atoms: _393  and  _395
REMARK  159  A    between atoms: _395  and  _396
REMARK  160  A    between atoms: _395  and  _398
REMARK  161  A    between atoms: _398  and  _399
REMARK  162  A    between atoms: _402  and  _404
REMARK  163  A    between atoms: _404  and  _405
REMARK  164  A    between atoms: _404  and  _407
REMARK  165  A    between atoms: _409  and  _411
REMARK  166  A    between atoms: _411  and  _412
REMARK  167  A    between atoms: _411  and  _414
REMARK  168  A    between atoms: _414  and  _415
REMARK  169  A    between atoms: _420  and  _421
REMARK  170  A    between atoms: _423  and  _425
REMARK  171  A    between atoms: _425  and  _426
REMARK  172  A    between atoms: _425  and  _428
REMARK  173  A    between atoms: _428  and  _429
REMARK  174  A    between atoms: _429  and  _430
REMARK  175  A    between atoms: _430  and  _431
REMARK  176  A    between atoms: _431  and  _432
REMARK  177  A    between atoms: _436  and  _438
REMARK  178  A    between atoms: _438  and  _439
REMARK  179  A    between atoms: _438  and  _441
REMARK  180  A    between atoms: _441  and  _442
REMARK  181  A    between atoms: _447  and  _448
REMARK  182  A    between atoms: _450  and  _452
REMARK  183  A    between atoms: _452  and  _453
REMARK  184  A    between atoms: _452  and  _455
REMARK  185  A    between atoms: _455  and  _456
REMARK  186  A    between atoms: _459  and  _461
REMARK  187  A    between atoms: _461  and  _462
REMARK  188  A    between atoms: _461  and  _464
REMARK  189  A    between atoms: _464  and  _465
REMARK  190  A    between atoms: _468  and  _470
REMARK  191  A    between atoms: _470  and  _471
REMARK  192  A    between atoms: _470  and  _473
REMARK  193  A    between atoms: _476  and  _478
REMARK  194  A    between atoms: _478  and  _479
REMARK  195  A    between atoms: _478  and  _481
REMARK  196  A    between atoms: _481  and  _482
REMARK  197  A    between atoms: _484  and  _486
REMARK  198  A    between atoms: _486  and  _487
REMARK  199  A    between atoms: _490  and  _492
REMARK  200  A    between atoms: _492  and  _493
REMARK  201  A    between atoms: _495  and  _497
REMARK  202  A    between atoms: _497  and  _498
REMARK  203  A    between atoms: _497  and  _500
REMARK  204  A    between atoms: _500  and  _501
REMARK  205  A    between atoms: _506  and  _508
REMARK  206  A    between atoms: _508  and  _509
REMARK  207  A    between atoms: _508  and  _511
REMARK  208  A    between atoms: _511  and  _512
REMARK  209  A    between atoms: _515  and  _517
REMARK  210  A    between atoms: _517  and  _518
REMARK  211  A    between atoms: _517  and  _520
REMARK  212  A    between atoms: _520  and  _521
REMARK  213  A    between atoms: _524  and  _526
REMARK  214  A    between atoms: _526  and  _527
REMARK  215  A    between atoms: _526  and  _529
REMARK  216  A    between atoms: _529  and  _530
REMARK  217  A    between atoms: _533  and  _535
REMARK  218  A    between atoms: _535  and  _536
REMARK  219  A    between atoms: _535  and  _538
REMARK  220  A    between atoms: _538  and  _539
REMARK  221  A    between atoms: _545  and  _547
REMARK  222  A    between atoms: _547  and  _548
REMARK  223  A    between atoms: _547  and  _550
REMARK  224  A    between atoms: _550  and  _551
REMARK  225  A    between atoms: _551  and  _552
REMARK  226  A    between atoms: _557  and  _559
REMARK  227  A    between atoms: _559  and  _560
REMARK  228  A    between atoms: _559  and  _562
REMARK  229  A    between atoms: _562  and  _563
REMARK  230  A    between atoms: _566  and  _568
REMARK  231  A    between atoms: _568  and  _569
REMARK  232  A    between atoms: _568  and  _571
REMARK  233  A    between atoms: _571  and  _572
REMARK  234  A    between atoms: _572  and  _573
REMARK  235  A    between atoms: _576  and  _578
REMARK  236  A    between atoms: _578  and  _579
REMARK  237  A    between atoms: _578  and  _581
REMARK  238  A    between atoms: _581  and  _582
REMARK  239  A    between atoms: _587  and  _589
REMARK  240  A    between atoms: _589  and  _590
REMARK  241  A    between atoms: _589  and  _592
REMARK  242  A    between atoms: _592  and  _593
REMARK  243  A    between atoms: _595  and  _597
REMARK  244  A    between atoms: _597  and  _598
REMARK  245  A    between atoms: _597  and  _600
REMARK  246  A    between atoms: _600  and  _601
REMARK  247  A    between atoms: _601  and  _602
REMARK  248  A    between atoms: _607  and  _609
REMARK  249  A    between atoms: _609  and  _610
REMARK  250  A    between atoms: _609  and  _612
REMARK  251  A    between atoms: _612  and  _613
REMARK  252  A    between atoms: _618  and  _619
REMARK  253  A    between atoms: _621  and  _623
REMARK  254  A    between atoms: _623  and  _624
REMARK  255  A    between atoms: _623  and  _626
REMARK  256  A    between atoms: _626  and  _627
REMARK  257  A    between atoms: _627  and  _628
REMARK  258  A    between atoms: _628  and  _629
REMARK  259  A    between atoms: _638  and  _640
REMARK  260  A    between atoms: _640  and  _641
REMARK  261  A    between atoms: _640  and  _643
REMARK  262  A    between atoms: _643  and  _644
REMARK  263  A    between atoms: _647  and  _649
REMARK  264  A    between atoms: _649  and  _650
REMARK  265  A    between atoms: _649  and  _652
REMARK  266  A    between atoms: _652  and  _653
REMARK  267  A    between atoms: _655  and  _657
REMARK  268  A    between atoms: _657  and  _658
REMARK  269  A    between atoms: _657  and  _660
REMARK  270  A    between atoms: _660  and  _661
REMARK  271  A    between atoms: _666  and  _668
REMARK  272  A    between atoms: _668  and  _669
REMARK  273  A    between atoms: _668  and  _671
REMARK  274  A    between atoms: _671  and  _672
REMARK  275  A    between atoms: _672  and  _673
REMARK  276  A    between atoms: _673  and  _674
REMARK  277  A    between atoms: _674  and  _675
REMARK  278  A    between atoms: _679  and  _681
REMARK  279  A    between atoms: _681  and  _682
REMARK  280  A    between atoms: _681  and  _684
REMARK  281  A    between atoms: _684  and  _685
REMARK  282  A    between atoms: _688  and  _690
REMARK  283  A    between atoms: _690  and  _691
REMARK  284  A    between atoms: _690  and  _693
REMARK  285  A    between atoms: _693  and  _694
REMARK  286  A    between atoms: _697  and  _699
REMARK  287  A    between atoms: _699  and  _700
REMARK  288  A    between atoms: _699  and  _702
REMARK  289  A    between atoms: _705  and  _707
REMARK  290  A    between atoms: _707  and  _708
REMARK  291  A    between atoms: _707  and  _710
REMARK  292  A    between atoms: _710  and  _711
REMARK                            x       y       z     vdW  Elec       q    Type
REMARK                         _______ _______ _______ _____ _____    ______ ____
ROOT
ATOM      1  O   HOH     1      56.327  15.182   0.664  0.00  0.00    +0.000 OA
ENDROOT
TORSDOF 0
REMARK  Name = ../refined-set-2016/1rjk/1rjk_pocket.pdb
REMARK  292 active torsions:
REMARK  status: ('A' for Active; 'I' for Inactive)
REMARK    1  A    between atoms: _1  and  _3
REMARK    2  A    between atoms: _3  and  _4
REMARK    3  A    between atoms: _3  and  _6
REMARK    4  A    between atoms: _6  and  _7
REMARK    5  A    between atoms: _10  and  _12
REMARK    6  A    between atoms: _12  and  _13
REMARK    7  A    between atoms: _12  and  _15
REMARK    8  A    between atoms: _15  and  _16
REMARK    9  A    between atoms: _21  and  _22
REMARK   10  A    between atoms: _24  and  _26
REMARK   11  A    between atoms: _26  and  _27
REMARK   12  A    between atoms: _26  and  _29
REMARK   13  A    between atoms: _29  and  _30
REMARK   14  A    between atoms: _34  and  _35
REMARK   15  A    between atoms: _40  and  _42
REMARK   16  A    between atoms: _42  and  _43
REMARK   17  A    between atoms: _42  and  _45
REMARK   18  A    between atoms: _45  and  _46
REMARK   19  A    between atoms: _51  and  _52
REMARK   20  A    between atoms: _54  and  _56
REMARK   21  A    between atoms: _56  and  _57
REMARK   22  A    between atoms: _56  and  _59
REMARK   23  A    between atoms: _59  and  _60
REMARK   24  A    between atoms: _66  and  _68
REMARK   25  A    between atoms: _68  and  _69
REMARK   26  A    between atoms: _68  and  _71
REMARK   27  A    between atoms: _71  and  _72
REMARK   28  A    between atoms: _78  and  _80
REMARK   29  A    between atoms: _80  and  _81
REMARK   30  A    between atoms: _80  and  _83
REMARK   31  A    between atoms: _83  and  _84
REMARK   32  A    between atoms: _84  and  _85
REMARK   33  A    between atoms: _85  and  _86
REMARK   34  A    between atoms: _95  and  _97
REMARK   35  A    between atoms: _97  and  _98
REMARK   36  A    between atoms: _97  and  _100
REMARK   37  A    between atoms: _100  and  _101
REMARK   38  A    between atoms: _104  and  _106
REMARK   39  A    between atoms: _106  and  _107
REMARK   40  A    between atoms: _106  and  _109
REMARK   41  A    between atoms: _109  and  _110
REMARK   42  A    between atoms: _110  and  _111
REMARK   43  A    between atoms: _113  and  _115
REMARK   44  A    between atoms: _115  and  _116
REMARK   45  A    between atoms: _115  and  _118
REMARK   46  A    between atoms: _118  and  _119
REMARK   47  A    between atoms: _123  and  _124
REMARK   48  A    between atoms: _129  and  _131
REMARK   49  A    between atoms: _131  and  _132
REMARK   50  A    between atoms: _131  and  _134
REMARK   51  A    between atoms: _134  and  _135
REMARK   52  A    between atoms: _140  and  _142
REMARK   53  A    between atoms: _142  and  _143
REMARK   54  A    between atoms: _142  and  _145
REMARK   55  A    between atoms: _145  and  _146
REMARK   56  A    between atoms: _149  and  _151
REMARK   57  A    between atoms: _151  and  _152
REMARK   58  A    between atoms: _155  and  _157
REMARK   59  A    between atoms: _157  and  _158
REMARK   60  A    between atoms: _157  and  _160
REMARK   61  A    between atoms: _160  and  _161
REMARK   62  A    between atoms: _164  and  _166
REMARK   63  A    between atoms: _166  and  _167
REMARK   64  A    between atoms: _166  and  _169
REMARK   65  A    between atoms: _169  and  _170
REMARK   66  A    between atoms: _173  and  _175
REMARK   67  A    between atoms: _175  and  _176
REMARK   68  A    between atoms: _175  and  _178
REMARK   69  A    between atoms: _181  and  _183
REMARK   70  A    between atoms: _183  and  _184
REMARK   71  A    between atoms: _183  and  _186
REMARK   72  A    between atoms: _186  and  _187
REMARK   73  A    between atoms: _189  and  _191
REMARK   74  A    between atoms: _191  and  _192
REMARK   75  A    between atoms: _191  and  _194
REMARK   76  A    between atoms: _194  and  _195
REMARK   77  A    between atoms: _200  and  _201
REMARK   78  A    between atoms: _203  and  _205
REMARK   79  A    between atoms: _205  and  _206
REMARK   80  A    between atoms: _205  and  _208
REMARK   81  A    between atoms: _208  and  _209
REMARK   82  A    between atoms: _211  and  _213
REMARK   83  A    between atoms: _213  and  _214
REMARK   84  A    between atoms: _213  and  _216
REMARK   85  A    between atoms: _216  and  _217
REMARK   86  A    between atoms: _220  and  _222
REMARK   87  A    between atoms: _222  and  _223
REMARK   88  A    between atoms: _222  and  _225
REMARK   89  A    between atoms: _225  and  _226
REMARK   90  A    between atoms: _226  and  _227
REMARK   91  A    between atoms: _227  and  _228
REMARK   92  A    between atoms: _228  and  _229
REMARK   93  A    between atoms: _233  and  _235
REMARK   94  A    between atoms: _235  and  _236
REMARK   95  A    between atoms: _235  and  _238
REMARK   96  A    between atoms: _241  and  _243
REMARK   97  A    between atoms: _243  and  _244
REMARK   98  A    between atoms: _247  and  _249
REMARK   99  A    between atoms: _249  and  _250
REMARK  100  A    between atoms: _249  and  _252
REMARK  101  A    between atoms: _252  and  _253
REMARK  102  A    between atoms: _256  and  _258
REMARK  103  A    between atoms: _258  and  _259
REMARK  104  A    between atoms: _258  and  _261
REMARK  105  A    between atoms: _261  and  _262
REMARK  106  A    between atoms: _262  and  _263
REMARK  107  A    between atoms: _266  and  _268
REMARK  108  A    between atoms: _268  and  _269
REMARK  109  A    between atoms: _268  and  _271
REMARK  110  A    between atoms: _274  and  _276
REMARK  111  A    between atoms: _276  and  _277
REMARK  112  A    between atoms: _276  and  _279
REMARK  113  A    between atoms: _279  and  _280
REMARK  114  A    between atoms: _283  and  _285
REMARK  115  A    between atoms: _285  and  _286
REMARK  116  A    between atoms: _285  and  _288
REMARK  117  A    between atoms: _288  and  _289
REMARK  118  A    between atoms: _289  and  _290
REMARK  119  A    between atoms: _292  and  _294
REMARK  120  A    between atoms: _294  and  _295
REMARK  121  A    between atoms: _294  and  _297
REMARK  122  A    between atoms: _297  and  _298
REMARK  123  A    between atoms: _301  and  _303
REMARK  124  A    between atoms: _303  and  _304
REMARK  125  A    between atoms: _303  and  _306
REMARK  126  A    between atoms: _306  and  _307
REMARK  127  A    between atoms: _307  and  _308
REMARK  128  A    between atoms: _308  and  _309
REMARK  129  A    between atoms: _318  and  _320
REMARK  130  A    between atoms: _320  and  _321
REMARK  131  A    between atoms: _320  and  _323
REMARK  132  A    between atoms: _323  and  _324
REMARK  133  A    between atoms: _326  and  _328
REMARK  134  A    between atoms: _328  and  _329
REMARK  135  A    between atoms: _328  and  _331
REMARK  136  A    between atoms: _331  and  _332
REMARK  137  A    between atoms: _337  and  _339
REMARK  138  A    between atoms: _339  and  _340
REMARK  139  A    between atoms: _339  and  _342
REMARK  140  A    between atoms: _342  and  _343
REMARK  141  A    between atoms: _343  and  _344
REMARK  142  A    between atoms: _349  and  _351
REMARK  143  A    between atoms: _351  and  _352
REMARK  144  A    between atoms: _351  and  _354
REMARK  145  A    between atoms: _354  and  _355
REMARK  146  A    between atoms: _357  and  _359
REMARK  147  A    between atoms: _359  and  _360
REMARK  148  A    between atoms: _359  and  _362
REMARK  149  A    between atoms: _362  and  _363
REMARK  150  A    between atoms: _369  and  _371
REMARK  151  A    between atoms: _371  and  _372
REMARK  152  A    between atoms: _371  and  _374
REMARK  153  A    between atoms: _374  and  _375
REMARK  154  A    between atoms: _377  and  _379
REMARK  155  A    between atoms: _379  and  _380
REMARK  156  A    between atoms: _379  and  _382
REMARK  157  A    between atoms: _382  and  _383
REMARK  158  A    between atoms: _393  and  _395
REMARK  159  A    between atoms: _395  and  _396
REMARK  160  A    between atoms: _395  and  _398
REMARK  161  A    between atoms: _398  and  _399
REMARK  162  A    between atoms: _402  and  _404
REMARK  163  A    between atoms: _404  and  _405
REMARK  164  A    between atoms: _404  and  _407
REMARK  165  A    between atoms: _409  and  _411
REMARK  166  A    between atoms: _411  and  _412
REMARK  167  A    between atoms: _411  and  _414
REMARK  168  A    between atoms: _414  and  _415
REMARK  169  A    between atoms: _420  and  _421
REMARK  170  A    between atoms: _423  and  _425
REMARK  171  A    between atoms: _425  and  _426
REMARK  172  A    between atoms: _425  and  _428
REMARK  173  A    between atoms: _428  and  _429
REMARK  174  A    between atoms: _429  and  _430
REMARK  175  A    between atoms: _430  and  _431
REMARK  176  A    between atoms: _431  and  _432
REMARK  177  A    between atoms: _436  and  _438
REMARK  178  A    between atoms: _438  and  _439
REMARK  179  A    between atoms: _438  and  _441
REMARK  180  A    between atoms: _441  and  _442
REMARK  181  A    between atoms: _447  and  _448
REMARK  182  A    between atoms: _450  and  _452
REMARK  183  A    between atoms: _452  and  _453
REMARK  184  A    between atoms: _452  and  _455
REMARK  185  A    between atoms: _455  and  _456
REMARK  186  A    between atoms: _459  and  _461
REMARK  187  A    between atoms: _461  and  _462
REMARK  188  A    between atoms: _461  and  _464
REMARK  189  A    between atoms: _464  and  _465
REMARK  190  A    between atoms: _468  and  _470
REMARK  191  A    between atoms: _470  and  _471
REMARK  192  A    between atoms: _470  and  _473
REMARK  193  A    between atoms: _476  and  _478
REMARK  194  A    between atoms: _478  and  _479
REMARK  195  A    between atoms: _478  and  _481
REMARK  196  A    between atoms: _481  and  _482
REMARK  197  A    between atoms: _484  and  _486
REMARK  198  A    between atoms: _486  and  _487
REMARK  199  A    between atoms: _490  and  _492
REMARK  200  A    between atoms: _492  and  _493
REMARK  201  A    between atoms: _495  and  _497
REMARK  202  A    between atoms: _497  and  _498
REMARK  203  A    between atoms: _497  and  _500
REMARK  204  A    between atoms: _500  and  _501
REMARK  205  A    between atoms: _506  and  _508
REMARK  206  A    between atoms: _508  and  _509
REMARK  207  A    between atoms: _508  and  _511
REMARK  208  A    between atoms: _511  and  _512
REMARK  209  A    between atoms: _515  and  _517
REMARK  210  A    between atoms: _517  and  _518
REMARK  211  A    between atoms: _517  and  _520
REMARK  212  A    between atoms: _520  and  _521
REMARK  213  A    between atoms: _524  and  _526
REMARK  214  A    between atoms: _526  and  _527
REMARK  215  A    between atoms: _526  and  _529
REMARK  216  A    between atoms: _529  and  _530
REMARK  217  A    between atoms: _533  and  _535
REMARK  218  A    between atoms: _535  and  _536
REMARK  219  A    between atoms: _535  and  _538
REMARK  220  A    between atoms: _538  and  _539
REMARK  221  A    between atoms: _545  and  _547
REMARK  222  A    between atoms: _547  and  _548
REMARK  223  A    between atoms: _547  and  _550
REMARK  224  A    between atoms: _550  and  _551
REMARK  225  A    between atoms: _551  and  _552
REMARK  226  A    between atoms: _557  and  _559
REMARK  227  A    between atoms: _559  and  _560
REMARK  228  A    between atoms: _559  and  _562
REMARK  229  A    between atoms: _562  and  _563
REMARK  230  A    between atoms: _566  and  _568
REMARK  231  A    between atoms: _568  and  _569
REMARK  232  A    between atoms: _568  and  _571
REMARK  233  A    between atoms: _571  and  _572
REMARK  234  A    between atoms: _572  and  _573
REMARK  235  A    between atoms: _576  and  _578
REMARK  236  A    between atoms: _578  and  _579
REMARK  237  A    between atoms: _578  and  _581
REMARK  238  A    between atoms: _581  and  _582
REMARK  239  A    between atoms: _587  and  _589
REMARK  240  A    between atoms: _589  and  _590
REMARK  241  A    between atoms: _589  and  _592
REMARK  242  A    between atoms: _592  and  _593
REMARK  243  A    between atoms: _595  and  _597
REMARK  244  A    between atoms: _597  and  _598
REMARK  245  A    between atoms: _597  and  _600
REMARK  246  A    between atoms: _600  and  _601
REMARK  247  A    between atoms: _601  and  _602
REMARK  248  A    between atoms: _607  and  _609
REMARK  249  A    between atoms: _609  and  _610
REMARK  250  A    between atoms: _609  and  _612
REMARK  251  A    between atoms: _612  and  _613
REMARK  252  A    between atoms: _618  and  _619
REMARK  253  A    between atoms: _621  and  _623
REMARK  254  A    between atoms: _623  and  _624
REMARK  255  A    between atoms: _623  and  _626
REMARK  256  A    between atoms: _626  and  _627
REMARK  257  A    between atoms: _627  and  _628
REMARK  258  A    between atoms: _628  and  _629
REMARK  259  A    between atoms: _638  and  _640
REMARK  260  A    between atoms: _640  and  _641
REMARK  261  A    between atoms: _640  and  _643
REMARK  262  A    between atoms: _643  and  _644
REMARK  263  A    between atoms: _647  and  _649
REMARK  264  A    between atoms: _649  and  _650
REMARK  265  A    between atoms: _649  and  _652
REMARK  266  A    between atoms: _652  and  _653
REMARK  267  A    between atoms: _655  and  _657
REMARK  268  A    between atoms: _657  and  _658
REMARK  269  A    between atoms: _657  and  _660
REMARK  270  A    between atoms: _660  and  _661
REMARK  271  A    between atoms: _666  and  _668
REMARK  272  A    between atoms: _668  and  _669
REMARK  273  A    between atoms: _668  and  _671
REMARK  274  A    between atoms: _671  and  _672
REMARK  275  A    between atoms: _672  and  _673
REMARK  276  A    between atoms: _673  and  _674
REMARK  277  A    between atoms: _674  and  _675
REMARK  278  A    between atoms: _679  and  _681
REMARK  279  A    between atoms: _681  and  _682
REMARK  280  A    between atoms: _681  and  _684
REMARK  281  A    between atoms: _684  and  _685
REMARK  282  A    between atoms: _688  and  _690
REMARK  283  A    between atoms: _690  and  _691
REMARK  284  A    between atoms: _690  and  _693
REMARK  285  A    between atoms: _693  and  _694
REMARK  286  A    between atoms: _697  and  _699
REMARK  287  A    between atoms: _699  and  _700
REMARK  288  A    between atoms: _699  and  _702
REMARK  289  A    between atoms: _705  and  _707
REMARK  290  A    between atoms: _707  and  _708
REMARK  291  A    between atoms: _707  and  _710
REMARK  292  A    between atoms: _710  and  _711
REMARK                            x       y       z     vdW  Elec       q    Type
REMARK                         _______ _______ _______ _____ _____    ______ ____
ROOT
ATOM      1  O   HOH     1      56.575  13.927   3.189  0.00  0.00    +0.000 OA
ENDROOT
TORSDOF 0
REMARK  Name = ../refined-set-2016/1rjk/1rjk_pocket.pdb
REMARK  292 active torsions:
REMARK  status: ('A' for Active; 'I' for Inactive)
REMARK    1  A    between atoms: _1  and  _3
REMARK    2  A    between atoms: _3  and  _4
REMARK    3  A    between atoms: _3  and  _6
REMARK    4  A    between atoms: _6  and  _7
REMARK    5  A    between atoms: _10  and  _12
REMARK    6  A    between atoms: _12  and  _13
REMARK    7  A    between atoms: _12  and  _15
REMARK    8  A    between atoms: _15  and  _16
REMARK    9  A    between atoms: _21  and  _22
REMARK   10  A    between atoms: _24  and  _26
REMARK   11  A    between atoms: _26  and  _27
REMARK   12  A    between atoms: _26  and  _29
REMARK   13  A    between atoms: _29  and  _30
REMARK   14  A    between atoms: _34  and  _35
REMARK   15  A    between atoms: _40  and  _42
REMARK   16  A    between atoms: _42  and  _43
REMARK   17  A    between atoms: _42  and  _45
REMARK   18  A    between atoms: _45  and  _46
REMARK   19  A    between atoms: _51  and  _52
REMARK   20  A    between atoms: _54  and  _56
REMARK   21  A    between atoms: _56  and  _57
REMARK   22  A    between atoms: _56  and  _59
REMARK   23  A    between atoms: _59  and  _60
REMARK   24  A    between atoms: _66  and  _68
REMARK   25  A    between atoms: _68  and  _69
REMARK   26  A    between atoms: _68  and  _71
REMARK   27  A    between atoms: _71  and  _72
REMARK   28  A    between atoms: _78  and  _80
REMARK   29  A    between atoms: _80  and  _81
REMARK   30  A    between atoms: _80  and  _83
REMARK   31  A    between atoms: _83  and  _84
REMARK   32  A    between atoms: _84  and  _85
REMARK   33  A    between atoms: _85  and  _86
REMARK   34  A    between atoms: _95  and  _97
REMARK   35  A    between atoms: _97  and  _98
REMARK   36  A    between atoms: _97  and  _100
REMARK   37  A    between atoms: _100  and  _101
REMARK   38  A    between atoms: _104  and  _106
REMARK   39  A    between atoms: _106  and  _107
REMARK   40  A    between atoms: _106  and  _109
REMARK   41  A    between atoms: _109  and  _110
REMARK   42  A    between atoms: _110  and  _111
REMARK   43  A    between atoms: _113  and  _115
REMARK   44  A    between atoms: _115  and  _116
REMARK   45  A    between atoms: _115  and  _118
REMARK   46  A    between atoms: _118  and  _119
REMARK   47  A    between atoms: _123  and  _124
REMARK   48  A    between atoms: _129  and  _131
REMARK   49  A    between atoms: _131  and  _132
REMARK   50  A    between atoms: _131  and  _134
REMARK   51  A    between atoms: _134  and  _135
REMARK   52  A    between atoms: _140  and  _142
REMARK   53  A    between atoms: _142  and  _143
REMARK   54  A    between atoms: _142  and  _145
REMARK   55  A    between atoms: _145  and  _146
REMARK   56  A    between atoms: _149  and  _151
REMARK   57  A    between atoms: _151  and  _152
REMARK   58  A    between atoms: _155  and  _157
REMARK   59  A    between atoms: _157  and  _158
REMARK   60  A    between atoms: _157  and  _160
REMARK   61  A    between atoms: _160  and  _161
REMARK   62  A    between atoms: _164  and  _166
REMARK   63  A    between atoms: _166  and  _167
REMARK   64  A    between atoms: _166  and  _169
REMARK   65  A    between atoms: _169  and  _170
REMARK   66  A    between atoms: _173  and  _175
REMARK   67  A    between atoms: _175  and  _176
REMARK   68  A    between atoms: _175  and  _178
REMARK   69  A    between atoms: _181  and  _183
REMARK   70  A    between atoms: _183  and  _184
REMARK   71  A    between atoms: _183  and  _186
REMARK   72  A    between atoms: _186  and  _187
REMARK   73  A    between atoms: _189  and  _191
REMARK   74  A    between atoms: _191  and  _192
REMARK   75  A    between atoms: _191  and  _194
REMARK   76  A    between atoms: _194  and  _195
REMARK   77  A    between atoms: _200  and  _201
REMARK   78  A    between atoms: _203  and  _205
REMARK   79  A    between atoms: _205  and  _206
REMARK   80  A    between atoms: _205  and  _208
REMARK   81  A    between atoms: _208  and  _209
REMARK   82  A    between atoms: _211  and  _213
REMARK   83  A    between atoms: _213  and  _214
REMARK   84  A    between atoms: _213  and  _216
REMARK   85  A    between atoms: _216  and  _217
REMARK   86  A    between atoms: _220  and  _222
REMARK   87  A    between atoms: _222  and  _223
REMARK   88  A    between atoms: _222  and  _225
REMARK   89  A    between atoms: _225  and  _226
REMARK   90  A    between atoms: _226  and  _227
REMARK   91  A    between atoms: _227  and  _228
REMARK   92  A    between atoms: _228  and  _229
REMARK   93  A    between atoms: _233  and  _235
REMARK   94  A    between atoms: _235  and  _236
REMARK   95  A    between atoms: _235  and  _238
REMARK   96  A    between atoms: _241  and  _243
REMARK   97  A    between atoms: _243  and  _244
REMARK   98  A    between atoms: _247  and  _249
REMARK   99  A    between atoms: _249  and  _250
REMARK  100  A    between atoms: _249  and  _252
REMARK  101  A    between atoms: _252  and  _253
REMARK  102  A    between atoms: _256  and  _258
REMARK  103  A    between atoms: _258  and  _259
REMARK  104  A    between atoms: _258  and  _261
REMARK  105  A    between atoms: _261  and  _262
REMARK  106  A    between atoms: _262  and  _263
REMARK  107  A    between atoms: _266  and  _268
REMARK  108  A    between atoms: _268  and  _269
REMARK  109  A    between atoms: _268  and  _271
REMARK  110  A    between atoms: _274  and  _276
REMARK  111  A    between atoms: _276  and  _277
REMARK  112  A    between atoms: _276  and  _279
REMARK  113  A    between atoms: _279  and  _280
REMARK  114  A    between atoms: _283  and  _285
REMARK  115  A    between atoms: _285  and  _286
REMARK  116  A    between atoms: _285  and  _288
REMARK  117  A    between atoms: _288  and  _289
REMARK  118  A    between atoms: _289  and  _290
REMARK  119  A    between atoms: _292  and  _294
REMARK  120  A    between atoms: _294  and  _295
REMARK  121  A    between atoms: _294  and  _297
REMARK  122  A    between atoms: _297  and  _298
REMARK  123  A    between atoms: _301  and  _303
REMARK  124  A    between atoms: _303  and  _304
REMARK  125  A    between atoms: _303  and  _306
REMARK  126  A    between atoms: _306  and  _307
REMARK  127  A    between atoms: _307  and  _308
REMARK  128  A    between atoms: _308  and  _309
REMARK  129  A    between atoms: _318  and  _320
REMARK  130  A    between atoms: _320  and  _321
REMARK  131  A    between atoms: _320  and  _323
REMARK  132  A    between atoms: _323  and  _324
REMARK  133  A    between atoms: _326  and  _328
REMARK  134  A    between atoms: _328  and  _329
REMARK  135  A    between atoms: _328  and  _331
REMARK  136  A    between atoms: _331  and  _332
REMARK  137  A    between atoms: _337  and  _339
REMARK  138  A    between atoms: _339  and  _340
REMARK  139  A    between atoms: _339  and  _342
REMARK  140  A    between atoms: _342  and  _343
REMARK  141  A    between atoms: _343  and  _344
REMARK  142  A    between atoms: _349  and  _351
REMARK  143  A    between atoms: _351  and  _352
REMARK  144  A    between atoms: _351  and  _354
REMARK  145  A    between atoms: _354  and  _355
REMARK  146  A    between atoms: _357  and  _359
REMARK  147  A    between atoms: _359  and  _360
REMARK  148  A    between atoms: _359  and  _362
REMARK  149  A    between atoms: _362  and  _363
REMARK  150  A    between atoms: _369  and  _371
REMARK  151  A    between atoms: _371  and  _372
REMARK  152  A    between atoms: _371  and  _374
REMARK  153  A    between atoms: _374  and  _375
REMARK  154  A    between atoms: _377  and  _379
REMARK  155  A    between atoms: _379  and  _380
REMARK  156  A    between atoms: _379  and  _382
REMARK  157  A    between atoms: _382  and  _383
REMARK  158  A    between atoms: _393  and  _395
REMARK  159  A    between atoms: _395  and  _396
REMARK  160  A    between atoms: _395  and  _398
REMARK  161  A    between atoms: _398  and  _399
REMARK  162  A    between atoms: _402  and  _404
REMARK  163  A    between atoms: _404  and  _405
REMARK  164  A    between atoms: _404  and  _407
REMARK  165  A    between atoms: _409  and  _411
REMARK  166  A    between atoms: _411  and  _412
REMARK  167  A    between atoms: _411  and  _414
REMARK  168  A    between atoms: _414  and  _415
REMARK  169  A    between atoms: _420  and  _421
REMARK  170  A    between atoms: _423  and  _425
REMARK  171  A    between atoms: _425  and  _426
REMARK  172  A    between atoms: _425  and  _428
REMARK  173  A    between atoms: _428  and  _429
REMARK  174  A    between atoms: _429  and  _430
REMARK  175  A    between atoms: _430  and  _431
REMARK  176  A    between atoms: _431  and  _432
REMARK  177  A    between atoms: _436  and  _438
REMARK  178  A    between atoms: _438  and  _439
REMARK  179  A    between atoms: _438  and  _441
REMARK  180  A    between atoms: _441  and  _442
REMARK  181  A    between atoms: _447  and  _448
REMARK  182  A    between atoms: _450  and  _452
REMARK  183  A    between atoms: _452  and  _453
REMARK  184  A    between atoms: _452  and  _455
REMARK  185  A    between atoms: _455  and  _456
REMARK  186  A    between atoms: _459  and  _461
REMARK  187  A    between atoms: _461  and  _462
REMARK  188  A    between atoms: _461  and  _464
REMARK  189  A    between atoms: _464  and  _465
REMARK  190  A    between atoms: _468  and  _470
REMARK  191  A    between atoms: _470  and  _471
REMARK  192  A    between atoms: _470  and  _473
REMARK  193  A    between atoms: _476  and  _478
REMARK  194  A    between atoms: _478  and  _479
REMARK  195  A    between atoms: _478  and  _481
REMARK  196  A    between atoms: _481  and  _482
REMARK  197  A    between atoms: _484  and  _486
REMARK  198  A    between atoms: _486  and  _487
REMARK  199  A    between atoms: _490  and  _492
REMARK  200  A    between atoms: _492  and  _493
REMARK  201  A    between atoms: _495  and  _497
REMARK  202  A    between atoms: _497  and  _498
REMARK  203  A    between atoms: _497  and  _500
REMARK  204  A    between atoms: _500  and  _501
REMARK  205  A    between atoms: _506  and  _508
REMARK  206  A    between atoms: _508  and  _509
REMARK  207  A    between atoms: _508  and  _511
REMARK  208  A    between atoms: _511  and  _512
REMARK  209  A    between atoms: _515  and  _517
REMARK  210  A    between atoms: _517  and  _518
REMARK  211  A    between atoms: _517  and  _520
REMARK  212  A    between atoms: _520  and  _521
REMARK  213  A    between atoms: _524  and  _526
REMARK  214  A    between atoms: _526  and  _527
REMARK  215  A    between atoms: _526  and  _529
REMARK  216  A    between atoms: _529  and  _530
REMARK  217  A    between atoms: _533  and  _535
REMARK  218  A    between atoms: _535  and  _536
REMARK  219  A    between atoms: _535  and  _538
REMARK  220  A    between atoms: _538  and  _539
REMARK  221  A    between atoms: _545  and  _547
REMARK  222  A    between atoms: _547  and  _548
REMARK  223  A    between atoms: _547  and  _550
REMARK  224  A    between atoms: _550  and  _551
REMARK  225  A    between atoms: _551  and  _552
REMARK  226  A    between atoms: _557  and  _559
REMARK  227  A    between atoms: _559  and  _560
REMARK  228  A    between atoms: _559  and  _562
REMARK  229  A    between atoms: _562  and  _563
REMARK  230  A    between atoms: _566  and  _568
REMARK  231  A    between atoms: _568  and  _569
REMARK  232  A    between atoms: _568  and  _571
REMARK  233  A    between atoms: _571  and  _572
REMARK  234  A    between atoms: _572  and  _573
REMARK  235  A    between atoms: _576  and  _578
REMARK  236  A    between atoms: _578  and  _579
REMARK  237  A    between atoms: _578  and  _581
REMARK  238  A    between atoms: _581  and  _582
REMARK  239  A    between atoms: _587  and  _589
REMARK  240  A    between atoms: _589  and  _590
REMARK  241  A    between atoms: _589  and  _592
REMARK  242  A    between atoms: _592  and  _593
REMARK  243  A    between atoms: _595  and  _597
REMARK  244  A    between atoms: _597  and  _598
REMARK  245  A    between atoms: _597  and  _600
REMARK  246  A    between atoms: _600  and  _601
REMARK  247  A    between atoms: _601  and  _602
REMARK  248  A    between atoms: _607  and  _609
REMARK  249  A    between atoms: _609  and  _610
REMARK  250  A    between atoms: _609  and  _612
REMARK  251  A    between atoms: _612  and  _613
REMARK  252  A    between atoms: _618  and  _619
REMARK  253  A    between atoms: _621  and  _623
REMARK  254  A    between atoms: _623  and  _624
REMARK  255  A    between atoms: _623  and  _626
REMARK  256  A    between atoms: _626  and  _627
REMARK  257  A    between atoms: _627  and  _628
REMARK  258  A    between atoms: _628  and  _629
REMARK  259  A    between atoms: _638  and  _640
REMARK  260  A    between atoms: _640  and  _641
REMARK  261  A    between atoms: _640  and  _643
REMARK  262  A    between atoms: _643  and  _644
REMARK  263  A    between atoms: _647  and  _649
REMARK  264  A    between atoms: _649  and  _650
REMARK  265  A    between atoms: _649  and  _652
REMARK  266  A    between atoms: _652  and  _653
REMARK  267  A    between atoms: _655  and  _657
REMARK  268  A    between atoms: _657  and  _658
REMARK  269  A    between atoms: _657  and  _660
REMARK  270  A    between atoms: _660  and  _661
REMARK  271  A    between atoms: _666  and  _668
REMARK  272  A    between atoms: _668  and  _669
REMARK  273  A    between atoms: _668  and  _671
REMARK  274  A    between atoms: _671  and  _672
REMARK  275  A    between atoms: _672  and  _673
REMARK  276  A    between atoms: _673  and  _674
REMARK  277  A    between atoms: _674  and  _675
REMARK  278  A    between atoms: _679  and  _681
REMARK  279  A    between atoms: _681  and  _682
REMARK  280  A    between atoms: _681  and  _684
REMARK  281  A    between atoms: _684  and  _685
REMARK  282  A    between atoms: _688  and  _690
REMARK  283  A    between atoms: _690  and  _691
REMARK  284  A    between atoms: _690  and  _693
REMARK  285  A    between atoms: _693  and  _694
REMARK  286  A    between atoms: _697  and  _699
REMARK  287  A    between atoms: _699  and  _700
REMARK  288  A    between atoms: _699  and  _702
REMARK  289  A    between atoms: _705  and  _707
REMARK  290  A    between atoms: _707  and  _708
REMARK  291  A    between atoms: _707  and  _710
REMARK  292  A    between atoms: _710  and  _711
REMARK                            x       y       z     vdW  Elec       q    Type
REMARK                         _______ _______ _______ _____ _____    ______ ____
ROOT
ATOM      1  O   HOH     1      66.507  -4.253 -14.783  0.00  0.00    +0.000 OA
ENDROOT
TORSDOF 0
