REMARK  Name = ../refined-set-2016/2zym/2zym_pocket.pdb
REMARK  261 active torsions:
REMARK  status: ('A' for Active; 'I' for Inactive)
REMARK    1  A    between atoms: _1  and  _3
REMARK    2  A    between atoms: _3  and  _4
REMARK    3  A    between atoms: _3  and  _6
REMARK    4  A    between atoms: _6  and  _7
REMARK    5  A    between atoms: _7  and  _8
REMARK    6  A    between atoms: _11  and  _13
REMARK    7  A    between atoms: _13  and  _14
REMARK    8  A    between atoms: _13  and  _16
REMARK    9  A    between atoms: _16  and  _17
REMARK   10  A    between atoms: _22  and  _24
REMARK   11  A    between atoms: _24  and  _25
REMARK   12  A    between atoms: _28  and  _30
REMARK   13  A    between atoms: _30  and  _31
REMARK   14  A    between atoms: _30  and  _33
REMARK   15  A    between atoms: _33  and  _34
REMARK   16  A    between atoms: _37  and  _39
REMARK   17  A    between atoms: _39  and  _40
REMARK   18  A    between atoms: _39  and  _42
REMARK   19  A    between atoms: _42  and  _43
REMARK   20  A    between atoms: _43  and  _44
REMARK   21  A    between atoms: _49  and  _51
REMARK   22  A    between atoms: _51  and  _52
REMARK   23  A    between atoms: _51  and  _54
REMARK   24  A    between atoms: _57  and  _59
REMARK   25  A    between atoms: _59  and  _60
REMARK   26  A    between atoms: _63  and  _65
REMARK   27  A    between atoms: _65  and  _66
REMARK   28  A    between atoms: _65  and  _68
REMARK   29  A    between atoms: _68  and  _69
REMARK   30  A    between atoms: _72  and  _74
REMARK   31  A    between atoms: _74  and  _75
REMARK   32  A    between atoms: _74  and  _77
REMARK   33  A    between atoms: _77  and  _78
REMARK   34  A    between atoms: _81  and  _83
REMARK   35  A    between atoms: _83  and  _84
REMARK   36  A    between atoms: _83  and  _86
REMARK   37  A    between atoms: _86  and  _87
REMARK   38  A    between atoms: _87  and  _88
REMARK   39  A    between atoms: _88  and  _89
REMARK   40  A    between atoms: _89  and  _90
REMARK   41  A    between atoms: _94  and  _96
REMARK   42  A    between atoms: _96  and  _97
REMARK   43  A    between atoms: _96  and  _99
REMARK   44  A    between atoms: _99  and  _100
REMARK   45  A    between atoms: _100  and  _101
REMARK   46  A    between atoms: _106  and  _108
REMARK   47  A    between atoms: _108  and  _109
REMARK   48  A    between atoms: _108  and  _111
REMARK   49  A    between atoms: _111  and  _112
REMARK   50  A    between atoms: _112  and  _113
REMARK   51  A    between atoms: _118  and  _120
REMARK   52  A    between atoms: _120  and  _121
REMARK   53  A    between atoms: _120  and  _123
REMARK   54  A    between atoms: _123  and  _124
REMARK   55  A    between atoms: _124  and  _125
REMARK   56  A    between atoms: _128  and  _130
REMARK   57  A    between atoms: _130  and  _131
REMARK   58  A    between atoms: _130  and  _133
REMARK   59  A    between atoms: _133  and  _134
REMARK   60  A    between atoms: _134  and  _135
REMARK   61  A    between atoms: _135  and  _136
REMARK   62  A    between atoms: _136  and  _137
REMARK   63  A    between atoms: _141  and  _143
REMARK   64  A    between atoms: _143  and  _144
REMARK   65  A    between atoms: _143  and  _146
REMARK   66  A    between atoms: _146  and  _147
REMARK   67  A    between atoms: _150  and  _152
REMARK   68  A    between atoms: _152  and  _153
REMARK   69  A    between atoms: _152  and  _155
REMARK   70  A    between atoms: _155  and  _156
REMARK   71  A    between atoms: _167  and  _168
REMARK   72  A    between atoms: _173  and  _175
REMARK   73  A    between atoms: _175  and  _176
REMARK   74  A    between atoms: _175  and  _178
REMARK   75  A    between atoms: _178  and  _179
REMARK   76  A    between atoms: _184  and  _186
REMARK   77  A    between atoms: _186  and  _187
REMARK   78  A    between atoms: _186  and  _189
REMARK   79  A    between atoms: _189  and  _190
REMARK   80  A    between atoms: _193  and  _195
REMARK   81  A    between atoms: _195  and  _196
REMARK   82  A    between atoms: _195  and  _198
REMARK   83  A    between atoms: _198  and  _199
REMARK   84  A    between atoms: _199  and  _200
REMARK   85  A    between atoms: _200  and  _201
REMARK   86  A    between atoms: _210  and  _212
REMARK   87  A    between atoms: _212  and  _213
REMARK   88  A    between atoms: _212  and  _215
REMARK   89  A    between atoms: _215  and  _216
REMARK   90  A    between atoms: _219  and  _221
REMARK   91  A    between atoms: _221  and  _222
REMARK   92  A    between atoms: _221  and  _224
REMARK   93  A    between atoms: _224  and  _225
REMARK   94  A    between atoms: _225  and  _226
REMARK   95  A    between atoms: _229  and  _231
REMARK   96  A    between atoms: _231  and  _232
REMARK   97  A    between atoms: _231  and  _234
REMARK   98  A    between atoms: _234  and  _235
REMARK   99  A    between atoms: _235  and  _236
REMARK  100  A    between atoms: _236  and  _237
REMARK  101  A    between atoms: _237  and  _238
REMARK  102  A    between atoms: _242  and  _244
REMARK  103  A    between atoms: _244  and  _245
REMARK  104  A    between atoms: _248  and  _250
REMARK  105  A    between atoms: _250  and  _251
REMARK  106  A    between atoms: _250  and  _253
REMARK  107  A    between atoms: _253  and  _254
REMARK  108  A    between atoms: _254  and  _255
REMARK  109  A    between atoms: _258  and  _260
REMARK  110  A    between atoms: _260  and  _261
REMARK  111  A    between atoms: _260  and  _263
REMARK  112  A    between atoms: _263  and  _264
REMARK  113  A    between atoms: _266  and  _268
REMARK  114  A    between atoms: _268  and  _269
REMARK  115  A    between atoms: _268  and  _271
REMARK  116  A    between atoms: _274  and  _276
REMARK  117  A    between atoms: _276  and  _277
REMARK  118  A    between atoms: _276  and  _279
REMARK  119  A    between atoms: _279  and  _280
REMARK  120  A    between atoms: _280  and  _281
REMARK  121  A    between atoms: _284  and  _286
REMARK  122  A    between atoms: _286  and  _287
REMARK  123  A    between atoms: _286  and  _289
REMARK  124  A    between atoms: _289  and  _290
REMARK  125  A    between atoms: _295  and  _297
REMARK  126  A    between atoms: _297  and  _298
REMARK  127  A    between atoms: _297  and  _300
REMARK  128  A    between atoms: _300  and  _301
REMARK  129  A    between atoms: _306  and  _308
REMARK  130  A    between atoms: _308  and  _309
REMARK  131  A    between atoms: _308  and  _311
REMARK  132  A    between atoms: _311  and  _312
REMARK  133  A    between atoms: _318  and  _320
REMARK  134  A    between atoms: _320  and  _321
REMARK  135  A    between atoms: _320  and  _323
REMARK  136  A    between atoms: _323  and  _324
REMARK  137  A    between atoms: _329  and  _330
REMARK  138  A    between atoms: _332  and  _334
REMARK  139  A    between atoms: _334  and  _335
REMARK  140  A    between atoms: _334  and  _337
REMARK  141  A    between atoms: _337  and  _338
REMARK  142  A    between atoms: _343  and  _344
REMARK  143  A    between atoms: _346  and  _348
REMARK  144  A    between atoms: _348  and  _349
REMARK  145  A    between atoms: _348  and  _351
REMARK  146  A    between atoms: _351  and  _352
REMARK  147  A    between atoms: _355  and  _357
REMARK  148  A    between atoms: _357  and  _358
REMARK  149  A    between atoms: _357  and  _360
REMARK  150  A    between atoms: _360  and  _361
REMARK  151  A    between atoms: _364  and  _366
REMARK  152  A    between atoms: _366  and  _367
REMARK  153  A    between atoms: _366  and  _369
REMARK  154  A    between atoms: _369  and  _370
REMARK  155  A    between atoms: _370  and  _371
REMARK  156  A    between atoms: _371  and  _372
REMARK  157  A    between atoms: _372  and  _373
REMARK  158  A    between atoms: _377  and  _379
REMARK  159  A    between atoms: _379  and  _380
REMARK  160  A    between atoms: _383  and  _385
REMARK  161  A    between atoms: _385  and  _386
REMARK  162  A    between atoms: _385  and  _388
REMARK  163  A    between atoms: _388  and  _389
REMARK  164  A    between atoms: _392  and  _394
REMARK  165  A    between atoms: _394  and  _395
REMARK  166  A    between atoms: _394  and  _397
REMARK  167  A    between atoms: _397  and  _398
REMARK  168  A    between atoms: _401  and  _403
REMARK  169  A    between atoms: _403  and  _404
REMARK  170  A    between atoms: _403  and  _406
REMARK  171  A    between atoms: _409  and  _411
REMARK  172  A    between atoms: _411  and  _412
REMARK  173  A    between atoms: _411  and  _414
REMARK  174  A    between atoms: _414  and  _415
REMARK  175  A    between atoms: _420  and  _422
REMARK  176  A    between atoms: _422  and  _423
REMARK  177  A    between atoms: _422  and  _425
REMARK  178  A    between atoms: _425  and  _426
REMARK  179  A    between atoms: _431  and  _433
REMARK  180  A    between atoms: _433  and  _434
REMARK  181  A    between atoms: _437  and  _438
REMARK  182  A    between atoms: _443  and  _445
REMARK  183  A    between atoms: _445  and  _446
REMARK  184  A    between atoms: _445  and  _448
REMARK  185  A    between atoms: _448  and  _449
REMARK  186  A    between atoms: _459  and  _461
REMARK  187  A    between atoms: _461  and  _462
REMARK  188  A    between atoms: _465  and  _467
REMARK  189  A    between atoms: _467  and  _468
REMARK  190  A    between atoms: _467  and  _470
REMARK  191  A    between atoms: _470  and  _471
REMARK  192  A    between atoms: _476  and  _477
REMARK  193  A    between atoms: _479  and  _481
REMARK  194  A    between atoms: _481  and  _482
REMARK  195  A    between atoms: _481  and  _484
REMARK  196  A    between atoms: _484  and  _485
REMARK  197  A    between atoms: _491  and  _493
REMARK  198  A    between atoms: _493  and  _494
REMARK  199  A    between atoms: _493  and  _496
REMARK  200  A    between atoms: _496  and  _497
REMARK  201  A    between atoms: _500  and  _502
REMARK  202  A    between atoms: _502  and  _503
REMARK  203  A    between atoms: _505  and  _507
REMARK  204  A    between atoms: _507  and  _508
REMARK  205  A    between atoms: _507  and  _510
REMARK  206  A    between atoms: _513  and  _515
REMARK  207  A    between atoms: _515  and  _516
REMARK  208  A    between atoms: _515  and  _518
REMARK  209  A    between atoms: _518  and  _519
REMARK  210  A    between atoms: _519  and  _520
REMARK  211  A    between atoms: _520  and  _521
REMARK  212  A    between atoms: _521  and  _522
REMARK  213  A    between atoms: _526  and  _528
REMARK  214  A    between atoms: _528  and  _529
REMARK  215  A    between atoms: _528  and  _531
REMARK  216  A    between atoms: _531  and  _532
REMARK  217  A    between atoms: _532  and  _533
REMARK  218  A    between atoms: _533  and  _534
REMARK  219  A    between atoms: _543  and  _545
REMARK  220  A    between atoms: _545  and  _546
REMARK  221  A    between atoms: _545  and  _548
REMARK  222  A    between atoms: _548  and  _549
REMARK  223  A    between atoms: _549  and  _550
REMARK  224  A    between atoms: _553  and  _555
REMARK  225  A    between atoms: _555  and  _556
REMARK  226  A    between atoms: _555  and  _558
REMARK  227  A    between atoms: _558  and  _559
REMARK  228  A    between atoms: _559  and  _560
REMARK  229  A    between atoms: _563  and  _564
REMARK  230  A    between atoms: _569  and  _571
REMARK  231  A    between atoms: _571  and  _572
REMARK  232  A    between atoms: _571  and  _574
REMARK  233  A    between atoms: _574  and  _575
REMARK  234  A    between atoms: _575  and  _576
REMARK  235  A    between atoms: _578  and  _580
REMARK  236  A    between atoms: _580  and  _581
REMARK  237  A    between atoms: _583  and  _585
REMARK  238  A    between atoms: _585  and  _586
REMARK  239  A    between atoms: _585  and  _588
REMARK  240  A    between atoms: _591  and  _593
REMARK  241  A    between atoms: _593  and  _594
REMARK  242  A    between atoms: _593  and  _596
REMARK  243  A    between atoms: _596  and  _597
REMARK  244  A    between atoms: _607  and  _609
REMARK  245  A    between atoms: _609  and  _610
REMARK  246  A    between atoms: _609  and  _612
REMARK  247  A    between atoms: _612  and  _613
REMARK  248  A    between atoms: _613  and  _614
REMARK  249  A    between atoms: _618  and  _619
REMARK  250  A    between atoms: _624  and  _626
REMARK  251  A    between atoms: _626  and  _627
REMARK  252  A    between atoms: _626  and  _629
REMARK  253  A    between atoms: _629  and  _630
REMARK  254  A    between atoms: _633  and  _635
REMARK  255  A    between atoms: _635  and  _636
REMARK  256  A    between atoms: _635  and  _638
REMARK  257  A    between atoms: _638  and  _639
REMARK  258  A    between atoms: _644  and  _646
REMARK  259  A    between atoms: _646  and  _647
REMARK  260  A    between atoms: _646  and  _649
REMARK  261  A    between atoms: _649  and  _650
REMARK                            x       y       z     vdW  Elec       q    Type
REMARK                         _______ _______ _______ _____ _____    ______ ____
ROOT
ATOM      1  CA  ASN A   2      10.425   3.390  20.475  0.00  0.00    +0.158 C 
ENDROOT
BRANCH   1   3
ATOM      2  C   GLU A   1       8.993   4.452  22.159  0.00  0.00    +0.238 C 
ATOM      3  N   ASN A   2       9.963   3.593  21.852  0.00  0.00    -0.297 N 
ATOM      4  H   ASN A   2      10.409   3.046  22.616  0.00  0.00    +0.150 HD
ATOM      5  O   GLU A   1       8.447   5.175  21.325  0.00  0.00    -0.274 OA
BRANCH   2   6
ATOM      6  CA  GLU A   1       8.584   4.520  23.631  0.00  0.00    +0.145 C 
BRANCH   6   7
ATOM      7  N   GLU A   1       8.037   5.837  23.932  0.00  0.00    -0.238 NA
ATOM      8  H   GLU A   1       7.159   6.133  23.460  0.00  0.00    +0.142 HD
ENDBRANCH   6   7
BRANCH   6   9
ATOM      9  CB  GLU A   1       7.562   3.424  23.968  0.00  0.00    +0.038 C 
BRANCH   9  10
ATOM     10  CG  GLU A   1       8.004   1.988  23.676  0.00  0.00    +0.116 C 
BRANCH  10  11
ATOM     11  CD  GLU A   1       9.253   1.569  24.438  0.00  0.00    +0.365 C 
ATOM     12  OE2 GLU A   1       9.116   0.856  25.449  0.00  0.00    -0.246 OA
ATOM     13  OE1 GLU A   1      10.374   1.937  24.027  0.00  0.00    -0.246 OA
ENDBRANCH  10  11
ENDBRANCH   9  10
ENDBRANCH   6   9
ENDBRANCH   2   6
ENDBRANCH   1   3
BRANCH   1  14
ATOM     14  C   ASN A   2       9.278   3.192  19.483  0.00  0.00    +0.241 C 
ATOM     15  O   ASN A   2       8.350   2.418  19.740  0.00  0.00    -0.273 OA
ATOM     16  N   ALA A   3       9.353   3.902  18.359  0.00  0.00    -0.297 N 
ATOM     17  H   ALA A   3      10.180   4.513  18.207  0.00  0.00    +0.150 HD
BRANCH  16  18
ATOM     18  CA  ALA A   3       8.314   3.853  17.331  0.00  0.00    +0.149 C 
ATOM     19  CB  ALA A   3       8.262   5.172  16.557  0.00  0.00    +0.031 C 
BRANCH  18  20
ATOM     20  C   ALA A   3       8.502   2.666  16.382  0.00  0.00    +0.241 C 
ATOM     21  N   ASP A   4       8.384   1.459  16.926  0.00  0.00    -0.298 N 
ATOM     22  H   ASP A   4       8.168   1.379  17.940  0.00  0.00    +0.150 HD
ATOM     23  O   ALA A   3       8.739   2.842  15.183  0.00  0.00    -0.273 OA
BRANCH  21  24
ATOM     24  CA  ASP A   4       8.550   0.239  16.134  0.00  0.00    +0.148 C 
BRANCH  24  25
ATOM     25  C   ASP A   4       7.235  -0.248  15.502  0.00  0.00    +0.227 C 
ATOM     26  O   ASP A   4       7.215  -1.287  14.840  0.00  0.00    -0.286 OA
ENDBRANCH  24  25
BRANCH  24  27
ATOM     27  CB  ASP A   4       9.232  -0.870  16.960  0.00  0.00    +0.142 C 
BRANCH  27  28
ATOM     28  CG  ASP A   4       8.310  -1.505  17.998  0.00  0.00    +0.367 C 
ATOM     29  OD2 ASP A   4       8.610  -2.639  18.427  0.00  0.00    -0.246 OA
ATOM     30  OD1 ASP A   4       7.297  -0.889  18.391  0.00  0.00    -0.246 OA
ENDBRANCH  27  28
ENDBRANCH  24  27
ENDBRANCH  21  24
ENDBRANCH  18  20
ENDBRANCH  16  18
ENDBRANCH   1  14
BRANCH   1  31
ATOM     31  CB  ASN A   2      11.381   2.199  20.406  0.00  0.00    +0.114 C 
BRANCH  31  32
ATOM     32  CG  ASN A   2      12.057   2.068  19.054  0.00  0.00    +0.222 C 
ATOM     33  ND2 ASN A   2      12.275   0.831  18.624  0.00  0.00    -0.329 N 
ATOM     34 HD21 ASN A   2      11.980   0.019  19.204  0.00  0.00    +0.145 HD
ATOM     35 HD22 ASN A   2      12.741   0.674  17.708  0.00  0.00    +0.145 HD
ATOM     36  OD1 ASN A   2      12.386   3.064  18.408  0.00  0.00    -0.275 OA
ENDBRANCH  31  32
ENDBRANCH   1  31
TORSDOF 15
REMARK  Name = ../refined-set-2016/2zym/2zym_pocket.pdb
REMARK  261 active torsions:
REMARK  status: ('A' for Active; 'I' for Inactive)
REMARK    1  A    between atoms: _1  and  _3
REMARK    2  A    between atoms: _3  and  _4
REMARK    3  A    between atoms: _3  and  _6
REMARK    4  A    between atoms: _6  and  _7
REMARK    5  A    between atoms: _7  and  _8
REMARK    6  A    between atoms: _11  and  _13
REMARK    7  A    between atoms: _13  and  _14
REMARK    8  A    between atoms: _13  and  _16
REMARK    9  A    between atoms: _16  and  _17
REMARK   10  A    between atoms: _22  and  _24
REMARK   11  A    between atoms: _24  and  _25
REMARK   12  A    between atoms: _28  and  _30
REMARK   13  A    between atoms: _30  and  _31
REMARK   14  A    between atoms: _30  and  _33
REMARK   15  A    between atoms: _33  and  _34
REMARK   16  A    between atoms: _37  and  _39
REMARK   17  A    between atoms: _39  and  _40
REMARK   18  A    between atoms: _39  and  _42
REMARK   19  A    between atoms: _42  and  _43
REMARK   20  A    between atoms: _43  and  _44
REMARK   21  A    between atoms: _49  and  _51
REMARK   22  A    between atoms: _51  and  _52
REMARK   23  A    between atoms: _51  and  _54
REMARK   24  A    between atoms: _57  and  _59
REMARK   25  A    between atoms: _59  and  _60
REMARK   26  A    between atoms: _63  and  _65
REMARK   27  A    between atoms: _65  and  _66
REMARK   28  A    between atoms: _65  and  _68
REMARK   29  A    between atoms: _68  and  _69
REMARK   30  A    between atoms: _72  and  _74
REMARK   31  A    between atoms: _74  and  _75
REMARK   32  A    between atoms: _74  and  _77
REMARK   33  A    between atoms: _77  and  _78
REMARK   34  A    between atoms: _81  and  _83
REMARK   35  A    between atoms: _83  and  _84
REMARK   36  A    between atoms: _83  and  _86
REMARK   37  A    between atoms: _86  and  _87
REMARK   38  A    between atoms: _87  and  _88
REMARK   39  A    between atoms: _88  and  _89
REMARK   40  A    between atoms: _89  and  _90
REMARK   41  A    between atoms: _94  and  _96
REMARK   42  A    between atoms: _96  and  _97
REMARK   43  A    between atoms: _96  and  _99
REMARK   44  A    between atoms: _99  and  _100
REMARK   45  A    between atoms: _100  and  _101
REMARK   46  A    between atoms: _106  and  _108
REMARK   47  A    between atoms: _108  and  _109
REMARK   48  A    between atoms: _108  and  _111
REMARK   49  A    between atoms: _111  and  _112
REMARK   50  A    between atoms: _112  and  _113
REMARK   51  A    between atoms: _118  and  _120
REMARK   52  A    between atoms: _120  and  _121
REMARK   53  A    between atoms: _120  and  _123
REMARK   54  A    between atoms: _123  and  _124
REMARK   55  A    between atoms: _124  and  _125
REMARK   56  A    between atoms: _128  and  _130
REMARK   57  A    between atoms: _130  and  _131
REMARK   58  A    between atoms: _130  and  _133
REMARK   59  A    between atoms: _133  and  _134
REMARK   60  A    between atoms: _134  and  _135
REMARK   61  A    between atoms: _135  and  _136
REMARK   62  A    between atoms: _136  and  _137
REMARK   63  A    between atoms: _141  and  _143
REMARK   64  A    between atoms: _143  and  _144
REMARK   65  A    between atoms: _143  and  _146
REMARK   66  A    between atoms: _146  and  _147
REMARK   67  A    between atoms: _150  and  _152
REMARK   68  A    between atoms: _152  and  _153
REMARK   69  A    between atoms: _152  and  _155
REMARK   70  A    between atoms: _155  and  _156
REMARK   71  A    between atoms: _167  and  _168
REMARK   72  A    between atoms: _173  and  _175
REMARK   73  A    between atoms: _175  and  _176
REMARK   74  A    between atoms: _175  and  _178
REMARK   75  A    between atoms: _178  and  _179
REMARK   76  A    between atoms: _184  and  _186
REMARK   77  A    between atoms: _186  and  _187
REMARK   78  A    between atoms: _186  and  _189
REMARK   79  A    between atoms: _189  and  _190
REMARK   80  A    between atoms: _193  and  _195
REMARK   81  A    between atoms: _195  and  _196
REMARK   82  A    between atoms: _195  and  _198
REMARK   83  A    between atoms: _198  and  _199
REMARK   84  A    between atoms: _199  and  _200
REMARK   85  A    between atoms: _200  and  _201
REMARK   86  A    between atoms: _210  and  _212
REMARK   87  A    between atoms: _212  and  _213
REMARK   88  A    between atoms: _212  and  _215
REMARK   89  A    between atoms: _215  and  _216
REMARK   90  A    between atoms: _219  and  _221
REMARK   91  A    between atoms: _221  and  _222
REMARK   92  A    between atoms: _221  and  _224
REMARK   93  A    between atoms: _224  and  _225
REMARK   94  A    between atoms: _225  and  _226
REMARK   95  A    between atoms: _229  and  _231
REMARK   96  A    between atoms: _231  and  _232
REMARK   97  A    between atoms: _231  and  _234
REMARK   98  A    between atoms: _234  and  _235
REMARK   99  A    between atoms: _235  and  _236
REMARK  100  A    between atoms: _236  and  _237
REMARK  101  A    between atoms: _237  and  _238
REMARK  102  A    between atoms: _242  and  _244
REMARK  103  A    between atoms: _244  and  _245
REMARK  104  A    between atoms: _248  and  _250
REMARK  105  A    between atoms: _250  and  _251
REMARK  106  A    between atoms: _250  and  _253
REMARK  107  A    between atoms: _253  and  _254
REMARK  108  A    between atoms: _254  and  _255
REMARK  109  A    between atoms: _258  and  _260
REMARK  110  A    between atoms: _260  and  _261
REMARK  111  A    between atoms: _260  and  _263
REMARK  112  A    between atoms: _263  and  _264
REMARK  113  A    between atoms: _266  and  _268
REMARK  114  A    between atoms: _268  and  _269
REMARK  115  A    between atoms: _268  and  _271
REMARK  116  A    between atoms: _274  and  _276
REMARK  117  A    between atoms: _276  and  _277
REMARK  118  A    between atoms: _276  and  _279
REMARK  119  A    between atoms: _279  and  _280
REMARK  120  A    between atoms: _280  and  _281
REMARK  121  A    between atoms: _284  and  _286
REMARK  122  A    between atoms: _286  and  _287
REMARK  123  A    between atoms: _286  and  _289
REMARK  124  A    between atoms: _289  and  _290
REMARK  125  A    between atoms: _295  and  _297
REMARK  126  A    between atoms: _297  and  _298
REMARK  127  A    between atoms: _297  and  _300
REMARK  128  A    between atoms: _300  and  _301
REMARK  129  A    between atoms: _306  and  _308
REMARK  130  A    between atoms: _308  and  _309
REMARK  131  A    between atoms: _308  and  _311
REMARK  132  A    between atoms: _311  and  _312
REMARK  133  A    between atoms: _318  and  _320
REMARK  134  A    between atoms: _320  and  _321
REMARK  135  A    between atoms: _320  and  _323
REMARK  136  A    between atoms: _323  and  _324
REMARK  137  A    between atoms: _329  and  _330
REMARK  138  A    between atoms: _332  and  _334
REMARK  139  A    between atoms: _334  and  _335
REMARK  140  A    between atoms: _334  and  _337
REMARK  141  A    between atoms: _337  and  _338
REMARK  142  A    between atoms: _343  and  _344
REMARK  143  A    between atoms: _346  and  _348
REMARK  144  A    between atoms: _348  and  _349
REMARK  145  A    between atoms: _348  and  _351
REMARK  146  A    between atoms: _351  and  _352
REMARK  147  A    between atoms: _355  and  _357
REMARK  148  A    between atoms: _357  and  _358
REMARK  149  A    between atoms: _357  and  _360
REMARK  150  A    between atoms: _360  and  _361
REMARK  151  A    between atoms: _364  and  _366
REMARK  152  A    between atoms: _366  and  _367
REMARK  153  A    between atoms: _366  and  _369
REMARK  154  A    between atoms: _369  and  _370
REMARK  155  A    between atoms: _370  and  _371
REMARK  156  A    between atoms: _371  and  _372
REMARK  157  A    between atoms: _372  and  _373
REMARK  158  A    between atoms: _377  and  _379
REMARK  159  A    between atoms: _379  and  _380
REMARK  160  A    between atoms: _383  and  _385
REMARK  161  A    between atoms: _385  and  _386
REMARK  162  A    between atoms: _385  and  _388
REMARK  163  A    between atoms: _388  and  _389
REMARK  164  A    between atoms: _392  and  _394
REMARK  165  A    between atoms: _394  and  _395
REMARK  166  A    between atoms: _394  and  _397
REMARK  167  A    between atoms: _397  and  _398
REMARK  168  A    between atoms: _401  and  _403
REMARK  169  A    between atoms: _403  and  _404
REMARK  170  A    between atoms: _403  and  _406
REMARK  171  A    between atoms: _409  and  _411
REMARK  172  A    between atoms: _411  and  _412
REMARK  173  A    between atoms: _411  and  _414
REMARK  174  A    between atoms: _414  and  _415
REMARK  175  A    between atoms: _420  and  _422
REMARK  176  A    between atoms: _422  and  _423
REMARK  177  A    between atoms: _422  and  _425
REMARK  178  A    between atoms: _425  and  _426
REMARK  179  A    between atoms: _431  and  _433
REMARK  180  A    between atoms: _433  and  _434
REMARK  181  A    between atoms: _437  and  _438
REMARK  182  A    between atoms: _443  and  _445
REMARK  183  A    between atoms: _445  and  _446
REMARK  184  A    between atoms: _445  and  _448
REMARK  185  A    between atoms: _448  and  _449
REMARK  186  A    between atoms: _459  and  _461
REMARK  187  A    between atoms: _461  and  _462
REMARK  188  A    between atoms: _465  and  _467
REMARK  189  A    between atoms: _467  and  _468
REMARK  190  A    between atoms: _467  and  _470
REMARK  191  A    between atoms: _470  and  _471
REMARK  192  A    between atoms: _476  and  _477
REMARK  193  A    between atoms: _479  and  _481
REMARK  194  A    between atoms: _481  and  _482
REMARK  195  A    between atoms: _481  and  _484
REMARK  196  A    between atoms: _484  and  _485
REMARK  197  A    between atoms: _491  and  _493
REMARK  198  A    between atoms: _493  and  _494
REMARK  199  A    between atoms: _493  and  _496
REMARK  200  A    between atoms: _496  and  _497
REMARK  201  A    between atoms: _500  and  _502
REMARK  202  A    between atoms: _502  and  _503
REMARK  203  A    between atoms: _505  and  _507
REMARK  204  A    between atoms: _507  and  _508
REMARK  205  A    between atoms: _507  and  _510
REMARK  206  A    between atoms: _513  and  _515
REMARK  207  A    between atoms: _515  and  _516
REMARK  208  A    between atoms: _515  and  _518
REMARK  209  A    between atoms: _518  and  _519
REMARK  210  A    between atoms: _519  and  _520
REMARK  211  A    between atoms: _520  and  _521
REMARK  212  A    between atoms: _521  and  _522
REMARK  213  A    between atoms: _526  and  _528
REMARK  214  A    between atoms: _528  and  _529
REMARK  215  A    between atoms: _528  and  _531
REMARK  216  A    between atoms: _531  and  _532
REMARK  217  A    between atoms: _532  and  _533
REMARK  218  A    between atoms: _533  and  _534
REMARK  219  A    between atoms: _543  and  _545
REMARK  220  A    between atoms: _545  and  _546
REMARK  221  A    between atoms: _545  and  _548
REMARK  222  A    between atoms: _548  and  _549
REMARK  223  A    between atoms: _549  and  _550
REMARK  224  A    between atoms: _553  and  _555
REMARK  225  A    between atoms: _555  and  _556
REMARK  226  A    between atoms: _555  and  _558
REMARK  227  A    between atoms: _558  and  _559
REMARK  228  A    between atoms: _559  and  _560
REMARK  229  A    between atoms: _563  and  _564
REMARK  230  A    between atoms: _569  and  _571
REMARK  231  A    between atoms: _571  and  _572
REMARK  232  A    between atoms: _571  and  _574
REMARK  233  A    between atoms: _574  and  _575
REMARK  234  A    between atoms: _575  and  _576
REMARK  235  A    between atoms: _578  and  _580
REMARK  236  A    between atoms: _580  and  _581
REMARK  237  A    between atoms: _583  and  _585
REMARK  238  A    between atoms: _585  and  _586
REMARK  239  A    between atoms: _585  and  _588
REMARK  240  A    between atoms: _591  and  _593
REMARK  241  A    between atoms: _593  and  _594
REMARK  242  A    between atoms: _593  and  _596
REMARK  243  A    between atoms: _596  and  _597
REMARK  244  A    between atoms: _607  and  _609
REMARK  245  A    between atoms: _609  and  _610
REMARK  246  A    between atoms: _609  and  _612
REMARK  247  A    between atoms: _612  and  _613
REMARK  248  A    between atoms: _613  and  _614
REMARK  249  A    between atoms: _618  and  _619
REMARK  250  A    between atoms: _624  and  _626
REMARK  251  A    between atoms: _626  and  _627
REMARK  252  A    between atoms: _626  and  _629
REMARK  253  A    between atoms: _629  and  _630
REMARK  254  A    between atoms: _633  and  _635
REMARK  255  A    between atoms: _635  and  _636
REMARK  256  A    between atoms: _635  and  _638
REMARK  257  A    between atoms: _638  and  _639
REMARK  258  A    between atoms: _644  and  _646
REMARK  259  A    between atoms: _646  and  _647
REMARK  260  A    between atoms: _646  and  _649
REMARK  261  A    between atoms: _649  and  _650
REMARK                            x       y       z     vdW  Elec       q    Type
REMARK                         _______ _______ _______ _____ _____    ______ ____
ROOT
ATOM      1  CB  GLN A   1       9.317  -2.049  21.510  0.00  0.00    +0.035 C 
ENDROOT
BRANCH   1   2
ATOM      2  CA  GLN A   1       8.022  -2.749  21.922  0.00  0.00    +0.134 C 
BRANCH   2   3
ATOM      3  N   GLN A   1       7.512  -3.604  20.848  0.00  0.00    -0.239 NA
ATOM      4  H   GLN A   1       7.934  -3.537  19.900  0.00  0.00    +0.142 HD
ENDBRANCH   2   3
BRANCH   2   5
ATOM      5  C   GLN A   1       6.982  -1.723  22.350  0.00  0.00    +0.224 C 
ATOM      6  O   GLN A   1       6.726  -1.559  23.541  0.00  0.00    -0.287 OA
ENDBRANCH   2   5
ENDBRANCH   1   2
BRANCH   1   7
ATOM      7  CG  GLN A   1      10.504  -2.977  21.332  0.00  0.00    +0.087 C 
BRANCH   7   8
ATOM      8  CD  GLN A   1      11.697  -2.277  20.715  0.00  0.00    +0.219 C 
ATOM      9  OE1 GLN A   1      11.834  -1.054  20.806  0.00  0.00    -0.275 OA
ATOM     10  NE2 GLN A   1      12.569  -3.051  20.078  0.00  0.00    -0.329 N 
ATOM     11 HE21 GLN A   1      12.412  -4.078  20.027  0.00  0.00    +0.145 HD
ATOM     12 HE22 GLN A   1      13.408  -2.630  19.631  0.00  0.00    +0.145 HD
ENDBRANCH   7   8
ENDBRANCH   1   7
TORSDOF 5
REMARK  Name = ../refined-set-2016/2zym/2zym_pocket.pdb
REMARK  261 active torsions:
REMARK  status: ('A' for Active; 'I' for Inactive)
REMARK    1  A    between atoms: _1  and  _3
REMARK    2  A    between atoms: _3  and  _4
REMARK    3  A    between atoms: _3  and  _6
REMARK    4  A    between atoms: _6  and  _7
REMARK    5  A    between atoms: _7  and  _8
REMARK    6  A    between atoms: _11  and  _13
REMARK    7  A    between atoms: _13  and  _14
REMARK    8  A    between atoms: _13  and  _16
REMARK    9  A    between atoms: _16  and  _17
REMARK   10  A    between atoms: _22  and  _24
REMARK   11  A    between atoms: _24  and  _25
REMARK   12  A    between atoms: _28  and  _30
REMARK   13  A    between atoms: _30  and  _31
REMARK   14  A    between atoms: _30  and  _33
REMARK   15  A    between atoms: _33  and  _34
REMARK   16  A    between atoms: _37  and  _39
REMARK   17  A    between atoms: _39  and  _40
REMARK   18  A    between atoms: _39  and  _42
REMARK   19  A    between atoms: _42  and  _43
REMARK   20  A    between atoms: _43  and  _44
REMARK   21  A    between atoms: _49  and  _51
REMARK   22  A    between atoms: _51  and  _52
REMARK   23  A    between atoms: _51  and  _54
REMARK   24  A    between atoms: _57  and  _59
REMARK   25  A    between atoms: _59  and  _60
REMARK   26  A    between atoms: _63  and  _65
REMARK   27  A    between atoms: _65  and  _66
REMARK   28  A    between atoms: _65  and  _68
REMARK   29  A    between atoms: _68  and  _69
REMARK   30  A    between atoms: _72  and  _74
REMARK   31  A    between atoms: _74  and  _75
REMARK   32  A    between atoms: _74  and  _77
REMARK   33  A    between atoms: _77  and  _78
REMARK   34  A    between atoms: _81  and  _83
REMARK   35  A    between atoms: _83  and  _84
REMARK   36  A    between atoms: _83  and  _86
REMARK   37  A    between atoms: _86  and  _87
REMARK   38  A    between atoms: _87  and  _88
REMARK   39  A    between atoms: _88  and  _89
REMARK   40  A    between atoms: _89  and  _90
REMARK   41  A    between atoms: _94  and  _96
REMARK   42  A    between atoms: _96  and  _97
REMARK   43  A    between atoms: _96  and  _99
REMARK   44  A    between atoms: _99  and  _100
REMARK   45  A    between atoms: _100  and  _101
REMARK   46  A    between atoms: _106  and  _108
REMARK   47  A    between atoms: _108  and  _109
REMARK   48  A    between atoms: _108  and  _111
REMARK   49  A    between atoms: _111  and  _112
REMARK   50  A    between atoms: _112  and  _113
REMARK   51  A    between atoms: _118  and  _120
REMARK   52  A    between atoms: _120  and  _121
REMARK   53  A    between atoms: _120  and  _123
REMARK   54  A    between atoms: _123  and  _124
REMARK   55  A    between atoms: _124  and  _125
REMARK   56  A    between atoms: _128  and  _130
REMARK   57  A    between atoms: _130  and  _131
REMARK   58  A    between atoms: _130  and  _133
REMARK   59  A    between atoms: _133  and  _134
REMARK   60  A    between atoms: _134  and  _135
REMARK   61  A    between atoms: _135  and  _136
REMARK   62  A    between atoms: _136  and  _137
REMARK   63  A    between atoms: _141  and  _143
REMARK   64  A    between atoms: _143  and  _144
REMARK   65  A    between atoms: _143  and  _146
REMARK   66  A    between atoms: _146  and  _147
REMARK   67  A    between atoms: _150  and  _152
REMARK   68  A    between atoms: _152  and  _153
REMARK   69  A    between atoms: _152  and  _155
REMARK   70  A    between atoms: _155  and  _156
REMARK   71  A    between atoms: _167  and  _168
REMARK   72  A    between atoms: _173  and  _175
REMARK   73  A    between atoms: _175  and  _176
REMARK   74  A    between atoms: _175  and  _178
REMARK   75  A    between atoms: _178  and  _179
REMARK   76  A    between atoms: _184  and  _186
REMARK   77  A    between atoms: _186  and  _187
REMARK   78  A    between atoms: _186  and  _189
REMARK   79  A    between atoms: _189  and  _190
REMARK   80  A    between atoms: _193  and  _195
REMARK   81  A    between atoms: _195  and  _196
REMARK   82  A    between atoms: _195  and  _198
REMARK   83  A    between atoms: _198  and  _199
REMARK   84  A    between atoms: _199  and  _200
REMARK   85  A    between atoms: _200  and  _201
REMARK   86  A    between atoms: _210  and  _212
REMARK   87  A    between atoms: _212  and  _213
REMARK   88  A    between atoms: _212  and  _215
REMARK   89  A    between atoms: _215  and  _216
REMARK   90  A    between atoms: _219  and  _221
REMARK   91  A    between atoms: _221  and  _222
REMARK   92  A    between atoms: _221  and  _224
REMARK   93  A    between atoms: _224  and  _225
REMARK   94  A    between atoms: _225  and  _226
REMARK   95  A    between atoms: _229  and  _231
REMARK   96  A    between atoms: _231  and  _232
REMARK   97  A    between atoms: _231  and  _234
REMARK   98  A    between atoms: _234  and  _235
REMARK   99  A    between atoms: _235  and  _236
REMARK  100  A    between atoms: _236  and  _237
REMARK  101  A    between atoms: _237  and  _238
REMARK  102  A    between atoms: _242  and  _244
REMARK  103  A    between atoms: _244  and  _245
REMARK  104  A    between atoms: _248  and  _250
REMARK  105  A    between atoms: _250  and  _251
REMARK  106  A    between atoms: _250  and  _253
REMARK  107  A    between atoms: _253  and  _254
REMARK  108  A    between atoms: _254  and  _255
REMARK  109  A    between atoms: _258  and  _260
REMARK  110  A    between atoms: _260  and  _261
REMARK  111  A    between atoms: _260  and  _263
REMARK  112  A    between atoms: _263  and  _264
REMARK  113  A    between atoms: _266  and  _268
REMARK  114  A    between atoms: _268  and  _269
REMARK  115  A    between atoms: _268  and  _271
REMARK  116  A    between atoms: _274  and  _276
REMARK  117  A    between atoms: _276  and  _277
REMARK  118  A    between atoms: _276  and  _279
REMARK  119  A    between atoms: _279  and  _280
REMARK  120  A    between atoms: _280  and  _281
REMARK  121  A    between atoms: _284  and  _286
REMARK  122  A    between atoms: _286  and  _287
REMARK  123  A    between atoms: _286  and  _289
REMARK  124  A    between atoms: _289  and  _290
REMARK  125  A    between atoms: _295  and  _297
REMARK  126  A    between atoms: _297  and  _298
REMARK  127  A    between atoms: _297  and  _300
REMARK  128  A    between atoms: _300  and  _301
REMARK  129  A    between atoms: _306  and  _308
REMARK  130  A    between atoms: _308  and  _309
REMARK  131  A    between atoms: _308  and  _311
REMARK  132  A    between atoms: _311  and  _312
REMARK  133  A    between atoms: _318  and  _320
REMARK  134  A    between atoms: _320  and  _321
REMARK  135  A    between atoms: _320  and  _323
REMARK  136  A    between atoms: _323  and  _324
REMARK  137  A    between atoms: _329  and  _330
REMARK  138  A    between atoms: _332  and  _334
REMARK  139  A    between atoms: _334  and  _335
REMARK  140  A    between atoms: _334  and  _337
REMARK  141  A    between atoms: _337  and  _338
REMARK  142  A    between atoms: _343  and  _344
REMARK  143  A    between atoms: _346  and  _348
REMARK  144  A    between atoms: _348  and  _349
REMARK  145  A    between atoms: _348  and  _351
REMARK  146  A    between atoms: _351  and  _352
REMARK  147  A    between atoms: _355  and  _357
REMARK  148  A    between atoms: _357  and  _358
REMARK  149  A    between atoms: _357  and  _360
REMARK  150  A    between atoms: _360  and  _361
REMARK  151  A    between atoms: _364  and  _366
REMARK  152  A    between atoms: _366  and  _367
REMARK  153  A    between atoms: _366  and  _369
REMARK  154  A    between atoms: _369  and  _370
REMARK  155  A    between atoms: _370  and  _371
REMARK  156  A    between atoms: _371  and  _372
REMARK  157  A    between atoms: _372  and  _373
REMARK  158  A    between atoms: _377  and  _379
REMARK  159  A    between atoms: _379  and  _380
REMARK  160  A    between atoms: _383  and  _385
REMARK  161  A    between atoms: _385  and  _386
REMARK  162  A    between atoms: _385  and  _388
REMARK  163  A    between atoms: _388  and  _389
REMARK  164  A    between atoms: _392  and  _394
REMARK  165  A    between atoms: _394  and  _395
REMARK  166  A    between atoms: _394  and  _397
REMARK  167  A    between atoms: _397  and  _398
REMARK  168  A    between atoms: _401  and  _403
REMARK  169  A    between atoms: _403  and  _404
REMARK  170  A    between atoms: _403  and  _406
REMARK  171  A    between atoms: _409  and  _411
REMARK  172  A    between atoms: _411  and  _412
REMARK  173  A    between atoms: _411  and  _414
REMARK  174  A    between atoms: _414  and  _415
REMARK  175  A    between atoms: _420  and  _422
REMARK  176  A    between atoms: _422  and  _423
REMARK  177  A    between atoms: _422  and  _425
REMARK  178  A    between atoms: _425  and  _426
REMARK  179  A    between atoms: _431  and  _433
REMARK  180  A    between atoms: _433  and  _434
REMARK  181  A    between atoms: _437  and  _438
REMARK  182  A    between atoms: _443  and  _445
REMARK  183  A    between atoms: _445  and  _446
REMARK  184  A    between atoms: _445  and  _448
REMARK  185  A    between atoms: _448  and  _449
REMARK  186  A    between atoms: _459  and  _461
REMARK  187  A    between atoms: _461  and  _462
REMARK  188  A    between atoms: _465  and  _467
REMARK  189  A    between atoms: _467  and  _468
REMARK  190  A    between atoms: _467  and  _470
REMARK  191  A    between atoms: _470  and  _471
REMARK  192  A    between atoms: _476  and  _477
REMARK  193  A    between atoms: _479  and  _481
REMARK  194  A    between atoms: _481  and  _482
REMARK  195  A    between atoms: _481  and  _484
REMARK  196  A    between atoms: _484  and  _485
REMARK  197  A    between atoms: _491  and  _493
REMARK  198  A    between atoms: _493  and  _494
REMARK  199  A    between atoms: _493  and  _496
REMARK  200  A    between atoms: _496  and  _497
REMARK  201  A    between atoms: _500  and  _502
REMARK  202  A    between atoms: _502  and  _503
REMARK  203  A    between atoms: _505  and  _507
REMARK  204  A    between atoms: _507  and  _508
REMARK  205  A    between atoms: _507  and  _510
REMARK  206  A    between atoms: _513  and  _515
REMARK  207  A    between atoms: _515  and  _516
REMARK  208  A    between atoms: _515  and  _518
REMARK  209  A    between atoms: _518  and  _519
REMARK  210  A    between atoms: _519  and  _520
REMARK  211  A    between atoms: _520  and  _521
REMARK  212  A    between atoms: _521  and  _522
REMARK  213  A    between atoms: _526  and  _528
REMARK  214  A    between atoms: _528  and  _529
REMARK  215  A    between atoms: _528  and  _531
REMARK  216  A    between atoms: _531  and  _532
REMARK  217  A    between atoms: _532  and  _533
REMARK  218  A    between atoms: _533  and  _534
REMARK  219  A    between atoms: _543  and  _545
REMARK  220  A    between atoms: _545  and  _546
REMARK  221  A    between atoms: _545  and  _548
REMARK  222  A    between atoms: _548  and  _549
REMARK  223  A    between atoms: _549  and  _550
REMARK  224  A    between atoms: _553  and  _555
REMARK  225  A    between atoms: _555  and  _556
REMARK  226  A    between atoms: _555  and  _558
REMARK  227  A    between atoms: _558  and  _559
REMARK  228  A    between atoms: _559  and  _560
REMARK  229  A    between atoms: _563  and  _564
REMARK  230  A    between atoms: _569  and  _571
REMARK  231  A    between atoms: _571  and  _572
REMARK  232  A    between atoms: _571  and  _574
REMARK  233  A    between atoms: _574  and  _575
REMARK  234  A    between atoms: _575  and  _576
REMARK  235  A    between atoms: _578  and  _580
REMARK  236  A    between atoms: _580  and  _581
REMARK  237  A    between atoms: _583  and  _585
REMARK  238  A    between atoms: _585  and  _586
REMARK  239  A    between atoms: _585  and  _588
REMARK  240  A    between atoms: _591  and  _593
REMARK  241  A    between atoms: _593  and  _594
REMARK  242  A    between atoms: _593  and  _596
REMARK  243  A    between atoms: _596  and  _597
REMARK  244  A    between atoms: _607  and  _609
REMARK  245  A    between atoms: _609  and  _610
REMARK  246  A    between atoms: _609  and  _612
REMARK  247  A    between atoms: _612  and  _613
REMARK  248  A    between atoms: _613  and  _614
REMARK  249  A    between atoms: _618  and  _619
REMARK  250  A    between atoms: _624  and  _626
REMARK  251  A    between atoms: _626  and  _627
REMARK  252  A    between atoms: _626  and  _629
REMARK  253  A    between atoms: _629  and  _630
REMARK  254  A    between atoms: _633  and  _635
REMARK  255  A    between atoms: _635  and  _636
REMARK  256  A    between atoms: _635  and  _638
REMARK  257  A    between atoms: _638  and  _639
REMARK  258  A    between atoms: _644  and  _646
REMARK  259  A    between atoms: _646  and  _647
REMARK  260  A    between atoms: _646  and  _649
REMARK  261  A    between atoms: _649  and  _650
REMARK                            x       y       z     vdW  Elec       q    Type
REMARK                         _______ _______ _______ _____ _____    ______ ____
ROOT
ATOM      1  C   LYS A   5      14.856  11.281  19.299  0.00  0.00    +0.241 C 
ATOM      2  N   GLN A   6      14.700  10.458  20.334  0.00  0.00    -0.297 N 
ATOM      3  H   GLN A   6      15.002   9.468  20.236  0.00  0.00    +0.150 HD
ATOM      4  O   LYS A   5      14.655  12.493  19.369  0.00  0.00    -0.273 OA
ENDROOT
BRANCH   2   5
ATOM      5  CA  GLN A   6      14.119  10.896  21.607  0.00  0.00    +0.149 C 
BRANCH   5   6
ATOM      6  C   GLN A   6      14.923  11.962  22.354  0.00  0.00    +0.241 C 
ATOM      7  O   GLN A   6      14.338  12.864  22.954  0.00  0.00    -0.273 OA
ATOM      8  N   GLN A   7      16.251  11.863  22.317  0.00  0.00    -0.297 N 
ATOM      9  H   GLN A   7      16.688  11.095  21.768  0.00  0.00    +0.150 HD
BRANCH   8  10
ATOM     10  CA  GLN A   7      17.111  12.813  23.033  0.00  0.00    +0.149 C 
BRANCH  10  11
ATOM     11  C   GLN A   7      17.064  14.196  22.383  0.00  0.00    +0.241 C 
ATOM     12  O   GLN A   7      16.960  15.217  23.073  0.00  0.00    -0.273 OA
ATOM     13  N   GLU A   8      17.127  14.214  21.054  0.00  0.00    -0.297 N 
ATOM     14  H   GLU A   8      17.250  13.316  20.545  0.00  0.00    +0.150 HD
BRANCH  13  15
ATOM     15  CA  GLU A   8      17.030  15.451  20.287  0.00  0.00    +0.149 C 
BRANCH  15  16
ATOM     16  C   GLU A   8      15.649  16.089  20.425  0.00  0.00    +0.241 C 
ATOM     17  N   LYS A   9      14.612  15.258  20.504  0.00  0.00    -0.298 N 
ATOM     18  H   LYS A   9      14.778  14.233  20.443  0.00  0.00    +0.150 HD
ATOM     19  O   GLU A   8      15.532  17.313  20.465  0.00  0.00    -0.273 OA
BRANCH  17  20
ATOM     20  CA  LYS A   9      13.247  15.750  20.674  0.00  0.00    +0.137 C 
BRANCH  20  21
ATOM     21  C   LYS A   9      13.047  16.373  22.056  0.00  0.00    +0.227 C 
ATOM     22  O   LYS A   9      12.377  17.401  22.183  0.00  0.00    -0.286 OA
ENDBRANCH  20  21
BRANCH  20  23
ATOM     23  CB  LYS A   9      12.220  14.641  20.417  0.00  0.00    +0.028 C 
BRANCH  23  24
ATOM     24  CG  LYS A   9      10.785  15.147  20.289  0.00  0.00    -0.000 C 
BRANCH  24  25
ATOM     25  CD  LYS A   9       9.799  14.010  20.047  0.00  0.00    -0.024 C 
BRANCH  25  26
ATOM     26  CE  LYS A   9       8.359  14.503  20.098  0.00  0.00    -0.086 C 
BRANCH  26  27
ATOM     27  NZ  LYS A   9       7.984  15.299  18.897  0.00  0.00    +0.380 N 
ATOM     28  HZ1 LYS A   9       6.995  15.609  18.983  0.00  0.00    -0.089 HD
ATOM     29  HZ2 LYS A   9       8.605  16.130  18.826  0.00  0.00    -0.089 HD
ATOM     30  HZ3 LYS A   9       8.091  14.711  18.046  0.00  0.00    -0.089 HD
ENDBRANCH  26  27
ENDBRANCH  25  26
ENDBRANCH  24  25
ENDBRANCH  23  24
ENDBRANCH  20  23
ENDBRANCH  17  20
ENDBRANCH  15  16
BRANCH  15  31
ATOM     31  CB  GLU A   8      17.369  15.205  18.811  0.00  0.00    +0.041 C 
BRANCH  31  32
ATOM     32  CG  GLU A   8      17.493  16.477  17.968  0.00  0.00    +0.116 C 
BRANCH  32  33
ATOM     33  CD  GLU A   8      18.362  17.540  18.627  0.00  0.00    +0.365 C 
ATOM     34  OE2 GLU A   8      19.550  17.259  18.905  0.00  0.00    -0.246 OA
ATOM     35  OE1 GLU A   8      17.850  18.656  18.872  0.00  0.00    -0.246 OA
ENDBRANCH  32  33
ENDBRANCH  31  32
ENDBRANCH  15  31
ENDBRANCH  13  15
ENDBRANCH  10  11
BRANCH  10  36
ATOM     36  CB  GLN A   7      18.552  12.295  23.129  0.00  0.00    +0.039 C 
BRANCH  36  37
ATOM     37  CG  GLN A   7      19.439  13.100  24.089  0.00  0.00    +0.087 C 
BRANCH  37  38
ATOM     38  CD  GLN A   7      20.681  12.352  24.558  0.00  0.00    +0.219 C 
ATOM     39  OE1 GLN A   7      21.616  12.955  25.085  0.00  0.00    -0.275 OA
ATOM     40  NE2 GLN A   7      20.692  11.039  24.377  0.00  0.00    -0.329 N 
ATOM     41 HE21 GLN A   7      21.512  10.479  24.685  0.00  0.00    +0.145 HD
ATOM     42 HE22 GLN A   7      19.880  10.569  23.927  0.00  0.00    +0.145 HD
ENDBRANCH  37  38
ENDBRANCH  36  37
ENDBRANCH  10  36
ENDBRANCH   8  10
ENDBRANCH   5   6
BRANCH   5  43
ATOM     43  CB  GLN A   6      13.839   9.696  22.523  0.00  0.00    +0.039 C 
BRANCH  43  44
ATOM     44  CG  GLN A   6      12.594   8.891  22.133  0.00  0.00    +0.087 C 
BRANCH  44  45
ATOM     45  CD  GLN A   6      12.066   8.014  23.259  0.00  0.00    +0.219 C 
ATOM     46  NE2 GLN A   6      12.292   8.436  24.495  0.00  0.00    -0.329 N 
ATOM     47 HE21 GLN A   6      11.951   7.880  25.305  0.00  0.00    +0.145 HD
ATOM     48 HE22 GLN A   6      12.810   9.323  24.655  0.00  0.00    +0.145 HD
ATOM     49  OE1 GLN A   6      11.457   6.970  23.016  0.00  0.00    -0.275 OA
ENDBRANCH  44  45
ENDBRANCH  43  44
ENDBRANCH   5  43
ENDBRANCH   2   5
BRANCH   1  50
ATOM     50  CA  LYS A   5      15.320  10.646  17.985  0.00  0.00    +0.149 C 
BRANCH  50  52
ATOM     51  C   LEU A   4      17.073   8.941  18.079  0.00  0.00    +0.241 C 
ATOM     52  N   LYS A   5      15.790   9.278  18.175  0.00  0.00    -0.297 N 
ATOM     53  H   LYS A   5      15.094   8.537  18.394  0.00  0.00    +0.150 HD
ATOM     54  O   LEU A   4      17.961   9.738  17.772  0.00  0.00    -0.273 OA
BRANCH  51  55
ATOM     55  CA  LEU A   4      17.411   7.487  18.402  0.00  0.00    +0.149 C 
BRANCH  55  58
ATOM     56  C   LEU A   3      15.671   6.636  19.894  0.00  0.00    +0.241 C 
ATOM     57  O   LEU A   3      16.058   7.327  20.836  0.00  0.00    -0.273 OA
ATOM     58  N   LEU A   4      16.231   6.670  18.687  0.00  0.00    -0.297 N 
ATOM     59  H   LEU A   4      15.817   6.098  17.923  0.00  0.00    +0.150 HD
BRANCH  56  60
ATOM     60  CA  LEU A   3      14.481   5.690  20.065  0.00  0.00    +0.149 C 
BRANCH  60  62
ATOM     61  C   ALA A   2      13.022   6.845  18.463  0.00  0.00    +0.241 C 
ATOM     62  N   LEU A   3      13.550   5.717  18.933  0.00  0.00    -0.297 N 
ATOM     63  H   LEU A   3      13.291   4.818  18.478  0.00  0.00    +0.150 HD
ATOM     64  O   ALA A   2      13.373   7.965  18.843  0.00  0.00    -0.273 OA
BRANCH  61  65
ATOM     65  CA  ALA A   2      11.923   6.681  17.414  0.00  0.00    +0.149 C 
ATOM     66  CB  ALA A   2      12.430   7.067  16.036  0.00  0.00    +0.031 C 
BRANCH  65  69
ATOM     67  C   VAL A   1      10.196   7.434  18.978  0.00  0.00    +0.238 C 
ATOM     68  O   VAL A   1      10.636   6.737  19.894  0.00  0.00    -0.274 OA
ATOM     69  N   ALA A   2      10.733   7.460  17.759  0.00  0.00    -0.297 N 
ATOM     70  H   ALA A   2      10.292   8.054  17.028  0.00  0.00    +0.150 HD
BRANCH  67  71
ATOM     71  CA  VAL A   1       8.968   8.313  19.202  0.00  0.00    +0.145 C 
BRANCH  71  72
ATOM     72  CB  VAL A   1       9.322   9.477  20.177  0.00  0.00    +0.025 C 
ATOM     73  CG2 VAL A   1       8.092  10.320  20.502  0.00  0.00    +0.002 C 
ATOM     74  CG1 VAL A   1      10.418  10.360  19.591  0.00  0.00    +0.002 C 
ENDBRANCH  71  72
BRANCH  71  75
ATOM     75  N   VAL A   1       7.910   7.456  19.725  0.00  0.00    -0.238 NA
ATOM     76  H   VAL A   1       8.141   6.806  20.503  0.00  0.00    +0.142 HD
ENDBRANCH  71  75
ENDBRANCH  67  71
ENDBRANCH  65  69
ENDBRANCH  61  65
ENDBRANCH  60  62
BRANCH  60  77
ATOM     77  CB  LEU A   3      14.978   4.262  20.308  0.00  0.00    +0.029 C 
BRANCH  77  78
ATOM     78  CG  LEU A   3      15.588   3.937  21.672  0.00  0.00    +0.002 C 
ATOM     79  CD2 LEU A   3      14.496   3.640  22.687  0.00  0.00    +0.000 C 
ATOM     80  CD1 LEU A   3      16.522   2.753  21.544  0.00  0.00    +0.000 C 
ENDBRANCH  77  78
ENDBRANCH  60  77
ENDBRANCH  56  60
ENDBRANCH  55  58
BRANCH  55  81
ATOM     81  CB  LEU A   4      18.246   6.858  17.281  0.00  0.00    +0.029 C 
BRANCH  81  82
ATOM     82  CG  LEU A   4      18.826   5.465  17.542  0.00  0.00    +0.002 C 
ATOM     83  CD2 LEU A   4      19.614   5.403  18.851  0.00  0.00    +0.000 C 
ATOM     84  CD1 LEU A   4      19.700   5.036  16.375  0.00  0.00    +0.000 C 
ENDBRANCH  81  82
ENDBRANCH  55  81
ENDBRANCH  51  55
ENDBRANCH  50  52
BRANCH  50  85
ATOM     85  CB  LYS A   5      14.184  10.684  16.958  0.00  0.00    +0.029 C 
BRANCH  85  86
ATOM     86  CG  LYS A   5      14.611  10.362  15.528  0.00  0.00    +0.000 C 
BRANCH  86  87
ATOM     87  CD  LYS A   5      13.503  10.671  14.524  0.00  0.00    -0.024 C 
BRANCH  87  88
ATOM     88  CE  LYS A   5      13.305  12.174  14.344  0.00  0.00    -0.086 C 
BRANCH  88  89
ATOM     89  NZ  LYS A   5      12.198  12.497  13.400  0.00  0.00    +0.380 N 
ATOM     90  HZ1 LYS A   5      11.308  12.098  13.762  0.00  0.00    -0.089 HD
ATOM     91  HZ2 LYS A   5      12.107  13.529  13.315  0.00  0.00    -0.089 HD
ATOM     92  HZ3 LYS A   5      12.409  12.088  12.467  0.00  0.00    -0.089 HD
ENDBRANCH  88  89
ENDBRANCH  87  88
ENDBRANCH  86  87
ENDBRANCH  85  86
ENDBRANCH  50  85
ENDBRANCH   1  50
TORSDOF 42
REMARK  Name = ../refined-set-2016/2zym/2zym_pocket.pdb
REMARK  261 active torsions:
REMARK  status: ('A' for Active; 'I' for Inactive)
REMARK    1  A    between atoms: _1  and  _3
REMARK    2  A    between atoms: _3  and  _4
REMARK    3  A    between atoms: _3  and  _6
REMARK    4  A    between atoms: _6  and  _7
REMARK    5  A    between atoms: _7  and  _8
REMARK    6  A    between atoms: _11  and  _13
REMARK    7  A    between atoms: _13  and  _14
REMARK    8  A    between atoms: _13  and  _16
REMARK    9  A    between atoms: _16  and  _17
REMARK   10  A    between atoms: _22  and  _24
REMARK   11  A    between atoms: _24  and  _25
REMARK   12  A    between atoms: _28  and  _30
REMARK   13  A    between atoms: _30  and  _31
REMARK   14  A    between atoms: _30  and  _33
REMARK   15  A    between atoms: _33  and  _34
REMARK   16  A    between atoms: _37  and  _39
REMARK   17  A    between atoms: _39  and  _40
REMARK   18  A    between atoms: _39  and  _42
REMARK   19  A    between atoms: _42  and  _43
REMARK   20  A    between atoms: _43  and  _44
REMARK   21  A    between atoms: _49  and  _51
REMARK   22  A    between atoms: _51  and  _52
REMARK   23  A    between atoms: _51  and  _54
REMARK   24  A    between atoms: _57  and  _59
REMARK   25  A    between atoms: _59  and  _60
REMARK   26  A    between atoms: _63  and  _65
REMARK   27  A    between atoms: _65  and  _66
REMARK   28  A    between atoms: _65  and  _68
REMARK   29  A    between atoms: _68  and  _69
REMARK   30  A    between atoms: _72  and  _74
REMARK   31  A    between atoms: _74  and  _75
REMARK   32  A    between atoms: _74  and  _77
REMARK   33  A    between atoms: _77  and  _78
REMARK   34  A    between atoms: _81  and  _83
REMARK   35  A    between atoms: _83  and  _84
REMARK   36  A    between atoms: _83  and  _86
REMARK   37  A    between atoms: _86  and  _87
REMARK   38  A    between atoms: _87  and  _88
REMARK   39  A    between atoms: _88  and  _89
REMARK   40  A    between atoms: _89  and  _90
REMARK   41  A    between atoms: _94  and  _96
REMARK   42  A    between atoms: _96  and  _97
REMARK   43  A    between atoms: _96  and  _99
REMARK   44  A    between atoms: _99  and  _100
REMARK   45  A    between atoms: _100  and  _101
REMARK   46  A    between atoms: _106  and  _108
REMARK   47  A    between atoms: _108  and  _109
REMARK   48  A    between atoms: _108  and  _111
REMARK   49  A    between atoms: _111  and  _112
REMARK   50  A    between atoms: _112  and  _113
REMARK   51  A    between atoms: _118  and  _120
REMARK   52  A    between atoms: _120  and  _121
REMARK   53  A    between atoms: _120  and  _123
REMARK   54  A    between atoms: _123  and  _124
REMARK   55  A    between atoms: _124  and  _125
REMARK   56  A    between atoms: _128  and  _130
REMARK   57  A    between atoms: _130  and  _131
REMARK   58  A    between atoms: _130  and  _133
REMARK   59  A    between atoms: _133  and  _134
REMARK   60  A    between atoms: _134  and  _135
REMARK   61  A    between atoms: _135  and  _136
REMARK   62  A    between atoms: _136  and  _137
REMARK   63  A    between atoms: _141  and  _143
REMARK   64  A    between atoms: _143  and  _144
REMARK   65  A    between atoms: _143  and  _146
REMARK   66  A    between atoms: _146  and  _147
REMARK   67  A    between atoms: _150  and  _152
REMARK   68  A    between atoms: _152  and  _153
REMARK   69  A    between atoms: _152  and  _155
REMARK   70  A    between atoms: _155  and  _156
REMARK   71  A    between atoms: _167  and  _168
REMARK   72  A    between atoms: _173  and  _175
REMARK   73  A    between atoms: _175  and  _176
REMARK   74  A    between atoms: _175  and  _178
REMARK   75  A    between atoms: _178  and  _179
REMARK   76  A    between atoms: _184  and  _186
REMARK   77  A    between atoms: _186  and  _187
REMARK   78  A    between atoms: _186  and  _189
REMARK   79  A    between atoms: _189  and  _190
REMARK   80  A    between atoms: _193  and  _195
REMARK   81  A    between atoms: _195  and  _196
REMARK   82  A    between atoms: _195  and  _198
REMARK   83  A    between atoms: _198  and  _199
REMARK   84  A    between atoms: _199  and  _200
REMARK   85  A    between atoms: _200  and  _201
REMARK   86  A    between atoms: _210  and  _212
REMARK   87  A    between atoms: _212  and  _213
REMARK   88  A    between atoms: _212  and  _215
REMARK   89  A    between atoms: _215  and  _216
REMARK   90  A    between atoms: _219  and  _221
REMARK   91  A    between atoms: _221  and  _222
REMARK   92  A    between atoms: _221  and  _224
REMARK   93  A    between atoms: _224  and  _225
REMARK   94  A    between atoms: _225  and  _226
REMARK   95  A    between atoms: _229  and  _231
REMARK   96  A    between atoms: _231  and  _232
REMARK   97  A    between atoms: _231  and  _234
REMARK   98  A    between atoms: _234  and  _235
REMARK   99  A    between atoms: _235  and  _236
REMARK  100  A    between atoms: _236  and  _237
REMARK  101  A    between atoms: _237  and  _238
REMARK  102  A    between atoms: _242  and  _244
REMARK  103  A    between atoms: _244  and  _245
REMARK  104  A    between atoms: _248  and  _250
REMARK  105  A    between atoms: _250  and  _251
REMARK  106  A    between atoms: _250  and  _253
REMARK  107  A    between atoms: _253  and  _254
REMARK  108  A    between atoms: _254  and  _255
REMARK  109  A    between atoms: _258  and  _260
REMARK  110  A    between atoms: _260  and  _261
REMARK  111  A    between atoms: _260  and  _263
REMARK  112  A    between atoms: _263  and  _264
REMARK  113  A    between atoms: _266  and  _268
REMARK  114  A    between atoms: _268  and  _269
REMARK  115  A    between atoms: _268  and  _271
REMARK  116  A    between atoms: _274  and  _276
REMARK  117  A    between atoms: _276  and  _277
REMARK  118  A    between atoms: _276  and  _279
REMARK  119  A    between atoms: _279  and  _280
REMARK  120  A    between atoms: _280  and  _281
REMARK  121  A    between atoms: _284  and  _286
REMARK  122  A    between atoms: _286  and  _287
REMARK  123  A    between atoms: _286  and  _289
REMARK  124  A    between atoms: _289  and  _290
REMARK  125  A    between atoms: _295  and  _297
REMARK  126  A    between atoms: _297  and  _298
REMARK  127  A    between atoms: _297  and  _300
REMARK  128  A    between atoms: _300  and  _301
REMARK  129  A    between atoms: _306  and  _308
REMARK  130  A    between atoms: _308  and  _309
REMARK  131  A    between atoms: _308  and  _311
REMARK  132  A    between atoms: _311  and  _312
REMARK  133  A    between atoms: _318  and  _320
REMARK  134  A    between atoms: _320  and  _321
REMARK  135  A    between atoms: _320  and  _323
REMARK  136  A    between atoms: _323  and  _324
REMARK  137  A    between atoms: _329  and  _330
REMARK  138  A    between atoms: _332  and  _334
REMARK  139  A    between atoms: _334  and  _335
REMARK  140  A    between atoms: _334  and  _337
REMARK  141  A    between atoms: _337  and  _338
REMARK  142  A    between atoms: _343  and  _344
REMARK  143  A    between atoms: _346  and  _348
REMARK  144  A    between atoms: _348  and  _349
REMARK  145  A    between atoms: _348  and  _351
REMARK  146  A    between atoms: _351  and  _352
REMARK  147  A    between atoms: _355  and  _357
REMARK  148  A    between atoms: _357  and  _358
REMARK  149  A    between atoms: _357  and  _360
REMARK  150  A    between atoms: _360  and  _361
REMARK  151  A    between atoms: _364  and  _366
REMARK  152  A    between atoms: _366  and  _367
REMARK  153  A    between atoms: _366  and  _369
REMARK  154  A    between atoms: _369  and  _370
REMARK  155  A    between atoms: _370  and  _371
REMARK  156  A    between atoms: _371  and  _372
REMARK  157  A    between atoms: _372  and  _373
REMARK  158  A    between atoms: _377  and  _379
REMARK  159  A    between atoms: _379  and  _380
REMARK  160  A    between atoms: _383  and  _385
REMARK  161  A    between atoms: _385  and  _386
REMARK  162  A    between atoms: _385  and  _388
REMARK  163  A    between atoms: _388  and  _389
REMARK  164  A    between atoms: _392  and  _394
REMARK  165  A    between atoms: _394  and  _395
REMARK  166  A    between atoms: _394  and  _397
REMARK  167  A    between atoms: _397  and  _398
REMARK  168  A    between atoms: _401  and  _403
REMARK  169  A    between atoms: _403  and  _404
REMARK  170  A    between atoms: _403  and  _406
REMARK  171  A    between atoms: _409  and  _411
REMARK  172  A    between atoms: _411  and  _412
REMARK  173  A    between atoms: _411  and  _414
REMARK  174  A    between atoms: _414  and  _415
REMARK  175  A    between atoms: _420  and  _422
REMARK  176  A    between atoms: _422  and  _423
REMARK  177  A    between atoms: _422  and  _425
REMARK  178  A    between atoms: _425  and  _426
REMARK  179  A    between atoms: _431  and  _433
REMARK  180  A    between atoms: _433  and  _434
REMARK  181  A    between atoms: _437  and  _438
REMARK  182  A    between atoms: _443  and  _445
REMARK  183  A    between atoms: _445  and  _446
REMARK  184  A    between atoms: _445  and  _448
REMARK  185  A    between atoms: _448  and  _449
REMARK  186  A    between atoms: _459  and  _461
REMARK  187  A    between atoms: _461  and  _462
REMARK  188  A    between atoms: _465  and  _467
REMARK  189  A    between atoms: _467  and  _468
REMARK  190  A    between atoms: _467  and  _470
REMARK  191  A    between atoms: _470  and  _471
REMARK  192  A    between atoms: _476  and  _477
REMARK  193  A    between atoms: _479  and  _481
REMARK  194  A    between atoms: _481  and  _482
REMARK  195  A    between atoms: _481  and  _484
REMARK  196  A    between atoms: _484  and  _485
REMARK  197  A    between atoms: _491  and  _493
REMARK  198  A    between atoms: _493  and  _494
REMARK  199  A    between atoms: _493  and  _496
REMARK  200  A    between atoms: _496  and  _497
REMARK  201  A    between atoms: _500  and  _502
REMARK  202  A    between atoms: _502  and  _503
REMARK  203  A    between atoms: _505  and  _507
REMARK  204  A    between atoms: _507  and  _508
REMARK  205  A    between atoms: _507  and  _510
REMARK  206  A    between atoms: _513  and  _515
REMARK  207  A    between atoms: _515  and  _516
REMARK  208  A    between atoms: _515  and  _518
REMARK  209  A    between atoms: _518  and  _519
REMARK  210  A    between atoms: _519  and  _520
REMARK  211  A    between atoms: _520  and  _521
REMARK  212  A    between atoms: _521  and  _522
REMARK  213  A    between atoms: _526  and  _528
REMARK  214  A    between atoms: _528  and  _529
REMARK  215  A    between atoms: _528  and  _531
REMARK  216  A    between atoms: _531  and  _532
REMARK  217  A    between atoms: _532  and  _533
REMARK  218  A    between atoms: _533  and  _534
REMARK  219  A    between atoms: _543  and  _545
REMARK  220  A    between atoms: _545  and  _546
REMARK  221  A    between atoms: _545  and  _548
REMARK  222  A    between atoms: _548  and  _549
REMARK  223  A    between atoms: _549  and  _550
REMARK  224  A    between atoms: _553  and  _555
REMARK  225  A    between atoms: _555  and  _556
REMARK  226  A    between atoms: _555  and  _558
REMARK  227  A    between atoms: _558  and  _559
REMARK  228  A    between atoms: _559  and  _560
REMARK  229  A    between atoms: _563  and  _564
REMARK  230  A    between atoms: _569  and  _571
REMARK  231  A    between atoms: _571  and  _572
REMARK  232  A    between atoms: _571  and  _574
REMARK  233  A    between atoms: _574  and  _575
REMARK  234  A    between atoms: _575  and  _576
REMARK  235  A    between atoms: _578  and  _580
REMARK  236  A    between atoms: _580  and  _581
REMARK  237  A    between atoms: _583  and  _585
REMARK  238  A    between atoms: _585  and  _586
REMARK  239  A    between atoms: _585  and  _588
REMARK  240  A    between atoms: _591  and  _593
REMARK  241  A    between atoms: _593  and  _594
REMARK  242  A    between atoms: _593  and  _596
REMARK  243  A    between atoms: _596  and  _597
REMARK  244  A    between atoms: _607  and  _609
REMARK  245  A    between atoms: _609  and  _610
REMARK  246  A    between atoms: _609  and  _612
REMARK  247  A    between atoms: _612  and  _613
REMARK  248  A    between atoms: _613  and  _614
REMARK  249  A    between atoms: _618  and  _619
REMARK  250  A    between atoms: _624  and  _626
REMARK  251  A    between atoms: _626  and  _627
REMARK  252  A    between atoms: _626  and  _629
REMARK  253  A    between atoms: _629  and  _630
REMARK  254  A    between atoms: _633  and  _635
REMARK  255  A    between atoms: _635  and  _636
REMARK  256  A    between atoms: _635  and  _638
REMARK  257  A    between atoms: _638  and  _639
REMARK  258  A    between atoms: _644  and  _646
REMARK  259  A    between atoms: _646  and  _647
REMARK  260  A    between atoms: _646  and  _649
REMARK  261  A    between atoms: _649  and  _650
REMARK                            x       y       z     vdW  Elec       q    Type
REMARK                         _______ _______ _______ _____ _____    ______ ____
ROOT
ATOM      1  CA  HIS A   4      23.051   4.502  27.696  0.00  0.00    +0.155 C 
ENDROOT
BRANCH   1   3
ATOM      2  C   PRO A   3      21.716   4.480  25.627  0.00  0.00    +0.241 C 
ATOM      3  N   HIS A   4      22.334   3.830  26.611  0.00  0.00    -0.297 N 
ATOM      4  H   HIS A   4      22.306   2.790  26.609  0.00  0.00    +0.150 HD
ATOM      5  O   PRO A   3      21.858   5.687  25.408  0.00  0.00    -0.273 OA
BRANCH   2   9
ATOM      6  C   TRP A   2      18.736   4.867  25.194  0.00  0.00    +0.244 C 
ATOM      7  O   TRP A   2      18.859   4.699  26.413  0.00  0.00    -0.273 OA
ATOM      8  N   PRO A   3      19.609   4.359  24.295  0.00  0.00    -0.272 N 
ATOM      9  CA  PRO A   3      20.804   3.634  24.739  0.00  0.00    +0.152 C 
ATOM     10  CB  PRO A   3      21.501   3.264  23.423  0.00  0.00    +0.031 C 
ATOM     11  CG  PRO A   3      20.410   3.256  22.416  0.00  0.00    +0.024 C 
ATOM     12  CD  PRO A   3      19.523   4.389  22.823  0.00  0.00    +0.094 C 
BRANCH   6  13
ATOM     13  CA  TRP A   2      17.532   5.648  24.657  0.00  0.00    +0.153 C 
BRANCH  13  15
ATOM     14  C   THR A   1      15.267   6.125  25.504  0.00  0.00    +0.241 C 
ATOM     15  N   TRP A   2      16.537   5.797  25.723  0.00  0.00    -0.297 N 
ATOM     16  H   TRP A   2      16.841   5.637  26.705  0.00  0.00    +0.150 HD
ATOM     17  O   THR A   1      14.836   6.505  24.411  0.00  0.00    -0.274 OA
BRANCH  14  18
ATOM     18  CA  THR A   1      14.345   6.027  26.719  0.00  0.00    +0.172 C 
BRANCH  18  19
ATOM     19  CB  THR A   1      13.557   4.676  26.700  0.00  0.00    +0.135 C 
ATOM     20  CG2 THR A   1      12.505   4.640  25.581  0.00  0.00    +0.034 C 
BRANCH  19  21
ATOM     21  OG1 THR A   1      14.468   3.584  26.531  0.00  0.00    -0.383 OA
ATOM     22  HG1 THR A   1      13.963   2.733  26.520  0.00  0.00    +0.210 HD
ENDBRANCH  19  21
ENDBRANCH  18  19
BRANCH  18  23
ATOM     23  N   THR A   1      13.454   7.182  26.825  0.00  0.00    -0.236 NA
ATOM     24  H   THR A   1      13.209   7.713  25.965  0.00  0.00    +0.142 HD
ENDBRANCH  18  23
ENDBRANCH  14  18
ENDBRANCH  13  15
BRANCH  13  25
ATOM     25  CB  TRP A   2      17.961   7.010  24.085  0.00  0.00    +0.057 C 
BRANCH  25  26
ATOM     26  CG  TRP A   2      18.437   8.024  25.091  0.00  0.00    -0.002 A 
ATOM     27  CD1 TRP A   2      19.649   8.054  25.722  0.00  0.00    +0.068 A 
ATOM     28  NE1 TRP A   2      19.726   9.150  26.551  0.00  0.00    -0.352 N 
ATOM     29  HE1 TRP A   2      20.539   9.400  27.149  0.00  0.00    +0.166 HD
ATOM     30  CE2 TRP A   2      18.556   9.858  26.460  0.00  0.00    +0.056 A 
ATOM     31  CZ2 TRP A   2      18.163  11.037  27.107  0.00  0.00    +0.017 A 
ATOM     32  CH2 TRP A   2      16.917  11.532  26.821  0.00  0.00    +0.001 A 
ATOM     33  CZ3 TRP A   2      16.060  10.882  25.912  0.00  0.00    +0.000 A 
ATOM     34  CE3 TRP A   2      16.451   9.708  25.267  0.00  0.00    +0.001 A 
ATOM     35  CD2 TRP A   2      17.722   9.182  25.543  0.00  0.00    +0.013 A 
ENDBRANCH  25  26
ENDBRANCH  13  25
ENDBRANCH   6  13
ENDBRANCH   2   9
ENDBRANCH   1   3
BRANCH   1  36
ATOM     36  C   HIS A   4      24.250   5.354  27.272  0.00  0.00    +0.241 C 
ATOM     37  O   HIS A   4      24.734   6.161  28.063  0.00  0.00    -0.273 OA
ATOM     38  N   ASP A   5      24.737   5.169  26.046  0.00  0.00    -0.297 N 
ATOM     39  H   ASP A   5      24.233   4.540  25.388  0.00  0.00    +0.150 HD
BRANCH  38  40
ATOM     40  CA  ASP A   5      25.969   5.832  25.602  0.00  0.00    +0.160 C 
BRANCH  40  41
ATOM     41  C   ASP A   5      25.896   7.362  25.649  0.00  0.00    +0.241 C 
ATOM     42  O   ASP A   5      26.900   8.030  25.899  0.00  0.00    -0.273 OA
ATOM     43  N   ARG A   6      24.705   7.906  25.425  0.00  0.00    -0.297 N 
ATOM     44  H   ARG A   6      23.895   7.288  25.216  0.00  0.00    +0.150 HD
BRANCH  43  45
ATOM     45  CA  ARG A   6      24.508   9.351  25.465  0.00  0.00    +0.149 C 
BRANCH  45  46
ATOM     46  C   ARG A   6      23.957   9.855  26.808  0.00  0.00    +0.241 C 
ATOM     47  N   LEU A   7      24.075   9.039  27.855  0.00  0.00    -0.298 N 
ATOM     48  H   LEU A   7      24.510   8.103  27.725  0.00  0.00    +0.150 HD
ATOM     49  O   ARG A   6      23.451  10.978  26.891  0.00  0.00    -0.273 OA
BRANCH  47  50
ATOM     50  CA  LEU A   7      23.604   9.434  29.187  0.00  0.00    +0.137 C 
BRANCH  50  51
ATOM     51  C   LEU A   7      24.371  10.627  29.755  0.00  0.00    +0.227 C 
ATOM     52  O   LEU A   7      23.759  11.601  30.206  0.00  0.00    -0.286 OA
ENDBRANCH  50  51
BRANCH  50  53
ATOM     53  CB  LEU A   7      23.651   8.265  30.178  0.00  0.00    +0.028 C 
BRANCH  53  54
ATOM     54  CG  LEU A   7      23.332   8.627  31.636  0.00  0.00    +0.002 C 
ATOM     55  CD2 LEU A   7      23.590   7.456  32.554  0.00  0.00    +0.000 C 
ATOM     56  CD1 LEU A   7      21.900   9.140  31.793  0.00  0.00    +0.000 C 
ENDBRANCH  53  54
ENDBRANCH  50  53
ENDBRANCH  47  50
ENDBRANCH  45  46
BRANCH  45  57
ATOM     57  CB  ARG A   6      23.624   9.801  24.297  0.00  0.00    +0.033 C 
BRANCH  57  58
ATOM     58  CG  ARG A   6      24.313   9.730  22.935  0.00  0.00    +0.045 C 
BRANCH  58  59
ATOM     59  CD  ARG A   6      23.397  10.192  21.805  0.00  0.00    +0.174 C 
BRANCH  59  60
ATOM     60  NE  ARG A   6      23.077  11.616  21.905  0.00  0.00    -0.265 N 
ATOM     61  HE  ARG A   6      23.566  12.171  22.636  0.00  0.00    +0.259 HD
ATOM     62  CZ  ARG A   6      22.206  12.251  21.129  0.00  0.00    +0.342 C 
ATOM     63  NH2 ARG A   6      21.985  13.551  21.309  0.00  0.00    -0.292 N 
ATOM     64 HH21 ARG A   6      22.494  14.066  22.055  0.00  0.00    +0.255 HD
ATOM     65 HH22 ARG A   6      21.304  14.051  20.703  0.00  0.00    +0.255 HD
ATOM     66  NH1 ARG A   6      21.555  11.595  20.174  0.00  0.00    -0.292 N 
ATOM     67 HH11 ARG A   6      21.726  10.579  20.031  0.00  0.00    +0.255 HD
ATOM     68 HH12 ARG A   6      20.874  12.097  19.569  0.00  0.00    +0.255 HD
ENDBRANCH  59  60
ENDBRANCH  58  59
ENDBRANCH  57  58
ENDBRANCH  45  57
ENDBRANCH  43  45
ENDBRANCH  40  41
BRANCH  40  69
ATOM     69  CB  ASP A   5      26.405   5.345  24.208  0.00  0.00    +0.143 C 
BRANCH  69  70
ATOM     70  CG  ASP A   5      25.318   5.489  23.160  0.00  0.00    +0.367 C 
ATOM     71  OD2 ASP A   5      24.252   4.855  23.310  0.00  0.00    -0.246 OA
ATOM     72  OD1 ASP A   5      25.536   6.219  22.169  0.00  0.00    -0.246 OA
ENDBRANCH  69  70
ENDBRANCH  40  69
ENDBRANCH  38  40
ENDBRANCH   1  36
BRANCH   1  73
ATOM     73  CB  HIS A   4      23.532   3.461  28.708  0.00  0.00    +0.076 C 
BRANCH  73  74
ATOM     74  CG  HIS A   4      24.663   2.623  28.202  0.00  0.00    +0.082 A 
ATOM     75  ND1 HIS A   4      25.974   2.838  28.570  0.00  0.00    -0.227 NA
ATOM     76  CE1 HIS A   4      26.749   1.960  27.959  0.00  0.00    +0.199 A 
ATOM     77  NE2 HIS A   4      25.991   1.197  27.193  0.00  0.00    -0.221 NA
ATOM     78  CD2 HIS A   4      24.683   1.593  27.325  0.00  0.00    +0.115 A 
ENDBRANCH  73  74
ENDBRANCH   1  73
TORSDOF 27
REMARK  Name = ../refined-set-2016/2zym/2zym_pocket.pdb
REMARK  261 active torsions:
REMARK  status: ('A' for Active; 'I' for Inactive)
REMARK    1  A    between atoms: _1  and  _3
REMARK    2  A    between atoms: _3  and  _4
REMARK    3  A    between atoms: _3  and  _6
REMARK    4  A    between atoms: _6  and  _7
REMARK    5  A    between atoms: _7  and  _8
REMARK    6  A    between atoms: _11  and  _13
REMARK    7  A    between atoms: _13  and  _14
REMARK    8  A    between atoms: _13  and  _16
REMARK    9  A    between atoms: _16  and  _17
REMARK   10  A    between atoms: _22  and  _24
REMARK   11  A    between atoms: _24  and  _25
REMARK   12  A    between atoms: _28  and  _30
REMARK   13  A    between atoms: _30  and  _31
REMARK   14  A    between atoms: _30  and  _33
REMARK   15  A    between atoms: _33  and  _34
REMARK   16  A    between atoms: _37  and  _39
REMARK   17  A    between atoms: _39  and  _40
REMARK   18  A    between atoms: _39  and  _42
REMARK   19  A    between atoms: _42  and  _43
REMARK   20  A    between atoms: _43  and  _44
REMARK   21  A    between atoms: _49  and  _51
REMARK   22  A    between atoms: _51  and  _52
REMARK   23  A    between atoms: _51  and  _54
REMARK   24  A    between atoms: _57  and  _59
REMARK   25  A    between atoms: _59  and  _60
REMARK   26  A    between atoms: _63  and  _65
REMARK   27  A    between atoms: _65  and  _66
REMARK   28  A    between atoms: _65  and  _68
REMARK   29  A    between atoms: _68  and  _69
REMARK   30  A    between atoms: _72  and  _74
REMARK   31  A    between atoms: _74  and  _75
REMARK   32  A    between atoms: _74  and  _77
REMARK   33  A    between atoms: _77  and  _78
REMARK   34  A    between atoms: _81  and  _83
REMARK   35  A    between atoms: _83  and  _84
REMARK   36  A    between atoms: _83  and  _86
REMARK   37  A    between atoms: _86  and  _87
REMARK   38  A    between atoms: _87  and  _88
REMARK   39  A    between atoms: _88  and  _89
REMARK   40  A    between atoms: _89  and  _90
REMARK   41  A    between atoms: _94  and  _96
REMARK   42  A    between atoms: _96  and  _97
REMARK   43  A    between atoms: _96  and  _99
REMARK   44  A    between atoms: _99  and  _100
REMARK   45  A    between atoms: _100  and  _101
REMARK   46  A    between atoms: _106  and  _108
REMARK   47  A    between atoms: _108  and  _109
REMARK   48  A    between atoms: _108  and  _111
REMARK   49  A    between atoms: _111  and  _112
REMARK   50  A    between atoms: _112  and  _113
REMARK   51  A    between atoms: _118  and  _120
REMARK   52  A    between atoms: _120  and  _121
REMARK   53  A    between atoms: _120  and  _123
REMARK   54  A    between atoms: _123  and  _124
REMARK   55  A    between atoms: _124  and  _125
REMARK   56  A    between atoms: _128  and  _130
REMARK   57  A    between atoms: _130  and  _131
REMARK   58  A    between atoms: _130  and  _133
REMARK   59  A    between atoms: _133  and  _134
REMARK   60  A    between atoms: _134  and  _135
REMARK   61  A    between atoms: _135  and  _136
REMARK   62  A    between atoms: _136  and  _137
REMARK   63  A    between atoms: _141  and  _143
REMARK   64  A    between atoms: _143  and  _144
REMARK   65  A    between atoms: _143  and  _146
REMARK   66  A    between atoms: _146  and  _147
REMARK   67  A    between atoms: _150  and  _152
REMARK   68  A    between atoms: _152  and  _153
REMARK   69  A    between atoms: _152  and  _155
REMARK   70  A    between atoms: _155  and  _156
REMARK   71  A    between atoms: _167  and  _168
REMARK   72  A    between atoms: _173  and  _175
REMARK   73  A    between atoms: _175  and  _176
REMARK   74  A    between atoms: _175  and  _178
REMARK   75  A    between atoms: _178  and  _179
REMARK   76  A    between atoms: _184  and  _186
REMARK   77  A    between atoms: _186  and  _187
REMARK   78  A    between atoms: _186  and  _189
REMARK   79  A    between atoms: _189  and  _190
REMARK   80  A    between atoms: _193  and  _195
REMARK   81  A    between atoms: _195  and  _196
REMARK   82  A    between atoms: _195  and  _198
REMARK   83  A    between atoms: _198  and  _199
REMARK   84  A    between atoms: _199  and  _200
REMARK   85  A    between atoms: _200  and  _201
REMARK   86  A    between atoms: _210  and  _212
REMARK   87  A    between atoms: _212  and  _213
REMARK   88  A    between atoms: _212  and  _215
REMARK   89  A    between atoms: _215  and  _216
REMARK   90  A    between atoms: _219  and  _221
REMARK   91  A    between atoms: _221  and  _222
REMARK   92  A    between atoms: _221  and  _224
REMARK   93  A    between atoms: _224  and  _225
REMARK   94  A    between atoms: _225  and  _226
REMARK   95  A    between atoms: _229  and  _231
REMARK   96  A    between atoms: _231  and  _232
REMARK   97  A    between atoms: _231  and  _234
REMARK   98  A    between atoms: _234  and  _235
REMARK   99  A    between atoms: _235  and  _236
REMARK  100  A    between atoms: _236  and  _237
REMARK  101  A    between atoms: _237  and  _238
REMARK  102  A    between atoms: _242  and  _244
REMARK  103  A    between atoms: _244  and  _245
REMARK  104  A    between atoms: _248  and  _250
REMARK  105  A    between atoms: _250  and  _251
REMARK  106  A    between atoms: _250  and  _253
REMARK  107  A    between atoms: _253  and  _254
REMARK  108  A    between atoms: _254  and  _255
REMARK  109  A    between atoms: _258  and  _260
REMARK  110  A    between atoms: _260  and  _261
REMARK  111  A    between atoms: _260  and  _263
REMARK  112  A    between atoms: _263  and  _264
REMARK  113  A    between atoms: _266  and  _268
REMARK  114  A    between atoms: _268  and  _269
REMARK  115  A    between atoms: _268  and  _271
REMARK  116  A    between atoms: _274  and  _276
REMARK  117  A    between atoms: _276  and  _277
REMARK  118  A    between atoms: _276  and  _279
REMARK  119  A    between atoms: _279  and  _280
REMARK  120  A    between atoms: _280  and  _281
REMARK  121  A    between atoms: _284  and  _286
REMARK  122  A    between atoms: _286  and  _287
REMARK  123  A    between atoms: _286  and  _289
REMARK  124  A    between atoms: _289  and  _290
REMARK  125  A    between atoms: _295  and  _297
REMARK  126  A    between atoms: _297  and  _298
REMARK  127  A    between atoms: _297  and  _300
REMARK  128  A    between atoms: _300  and  _301
REMARK  129  A    between atoms: _306  and  _308
REMARK  130  A    between atoms: _308  and  _309
REMARK  131  A    between atoms: _308  and  _311
REMARK  132  A    between atoms: _311  and  _312
REMARK  133  A    between atoms: _318  and  _320
REMARK  134  A    between atoms: _320  and  _321
REMARK  135  A    between atoms: _320  and  _323
REMARK  136  A    between atoms: _323  and  _324
REMARK  137  A    between atoms: _329  and  _330
REMARK  138  A    between atoms: _332  and  _334
REMARK  139  A    between atoms: _334  and  _335
REMARK  140  A    between atoms: _334  and  _337
REMARK  141  A    between atoms: _337  and  _338
REMARK  142  A    between atoms: _343  and  _344
REMARK  143  A    between atoms: _346  and  _348
REMARK  144  A    between atoms: _348  and  _349
REMARK  145  A    between atoms: _348  and  _351
REMARK  146  A    between atoms: _351  and  _352
REMARK  147  A    between atoms: _355  and  _357
REMARK  148  A    between atoms: _357  and  _358
REMARK  149  A    between atoms: _357  and  _360
REMARK  150  A    between atoms: _360  and  _361
REMARK  151  A    between atoms: _364  and  _366
REMARK  152  A    between atoms: _366  and  _367
REMARK  153  A    between atoms: _366  and  _369
REMARK  154  A    between atoms: _369  and  _370
REMARK  155  A    between atoms: _370  and  _371
REMARK  156  A    between atoms: _371  and  _372
REMARK  157  A    between atoms: _372  and  _373
REMARK  158  A    between atoms: _377  and  _379
REMARK  159  A    between atoms: _379  and  _380
REMARK  160  A    between atoms: _383  and  _385
REMARK  161  A    between atoms: _385  and  _386
REMARK  162  A    between atoms: _385  and  _388
REMARK  163  A    between atoms: _388  and  _389
REMARK  164  A    between atoms: _392  and  _394
REMARK  165  A    between atoms: _394  and  _395
REMARK  166  A    between atoms: _394  and  _397
REMARK  167  A    between atoms: _397  and  _398
REMARK  168  A    between atoms: _401  and  _403
REMARK  169  A    between atoms: _403  and  _404
REMARK  170  A    between atoms: _403  and  _406
REMARK  171  A    between atoms: _409  and  _411
REMARK  172  A    between atoms: _411  and  _412
REMARK  173  A    between atoms: _411  and  _414
REMARK  174  A    between atoms: _414  and  _415
REMARK  175  A    between atoms: _420  and  _422
REMARK  176  A    between atoms: _422  and  _423
REMARK  177  A    between atoms: _422  and  _425
REMARK  178  A    between atoms: _425  and  _426
REMARK  179  A    between atoms: _431  and  _433
REMARK  180  A    between atoms: _433  and  _434
REMARK  181  A    between atoms: _437  and  _438
REMARK  182  A    between atoms: _443  and  _445
REMARK  183  A    between atoms: _445  and  _446
REMARK  184  A    between atoms: _445  and  _448
REMARK  185  A    between atoms: _448  and  _449
REMARK  186  A    between atoms: _459  and  _461
REMARK  187  A    between atoms: _461  and  _462
REMARK  188  A    between atoms: _465  and  _467
REMARK  189  A    between atoms: _467  and  _468
REMARK  190  A    between atoms: _467  and  _470
REMARK  191  A    between atoms: _470  and  _471
REMARK  192  A    between atoms: _476  and  _477
REMARK  193  A    between atoms: _479  and  _481
REMARK  194  A    between atoms: _481  and  _482
REMARK  195  A    between atoms: _481  and  _484
REMARK  196  A    between atoms: _484  and  _485
REMARK  197  A    between atoms: _491  and  _493
REMARK  198  A    between atoms: _493  and  _494
REMARK  199  A    between atoms: _493  and  _496
REMARK  200  A    between atoms: _496  and  _497
REMARK  201  A    between atoms: _500  and  _502
REMARK  202  A    between atoms: _502  and  _503
REMARK  203  A    between atoms: _505  and  _507
REMARK  204  A    between atoms: _507  and  _508
REMARK  205  A    between atoms: _507  and  _510
REMARK  206  A    between atoms: _513  and  _515
REMARK  207  A    between atoms: _515  and  _516
REMARK  208  A    between atoms: _515  and  _518
REMARK  209  A    between atoms: _518  and  _519
REMARK  210  A    between atoms: _519  and  _520
REMARK  211  A    between atoms: _520  and  _521
REMARK  212  A    between atoms: _521  and  _522
REMARK  213  A    between atoms: _526  and  _528
REMARK  214  A    between atoms: _528  and  _529
REMARK  215  A    between atoms: _528  and  _531
REMARK  216  A    between atoms: _531  and  _532
REMARK  217  A    between atoms: _532  and  _533
REMARK  218  A    between atoms: _533  and  _534
REMARK  219  A    between atoms: _543  and  _545
REMARK  220  A    between atoms: _545  and  _546
REMARK  221  A    between atoms: _545  and  _548
REMARK  222  A    between atoms: _548  and  _549
REMARK  223  A    between atoms: _549  and  _550
REMARK  224  A    between atoms: _553  and  _555
REMARK  225  A    between atoms: _555  and  _556
REMARK  226  A    between atoms: _555  and  _558
REMARK  227  A    between atoms: _558  and  _559
REMARK  228  A    between atoms: _559  and  _560
REMARK  229  A    between atoms: _563  and  _564
REMARK  230  A    between atoms: _569  and  _571
REMARK  231  A    between atoms: _571  and  _572
REMARK  232  A    between atoms: _571  and  _574
REMARK  233  A    between atoms: _574  and  _575
REMARK  234  A    between atoms: _575  and  _576
REMARK  235  A    between atoms: _578  and  _580
REMARK  236  A    between atoms: _580  and  _581
REMARK  237  A    between atoms: _583  and  _585
REMARK  238  A    between atoms: _585  and  _586
REMARK  239  A    between atoms: _585  and  _588
REMARK  240  A    between atoms: _591  and  _593
REMARK  241  A    between atoms: _593  and  _594
REMARK  242  A    between atoms: _593  and  _596
REMARK  243  A    between atoms: _596  and  _597
REMARK  244  A    between atoms: _607  and  _609
REMARK  245  A    between atoms: _609  and  _610
REMARK  246  A    between atoms: _609  and  _612
REMARK  247  A    between atoms: _612  and  _613
REMARK  248  A    between atoms: _613  and  _614
REMARK  249  A    between atoms: _618  and  _619
REMARK  250  A    between atoms: _624  and  _626
REMARK  251  A    between atoms: _626  and  _627
REMARK  252  A    between atoms: _626  and  _629
REMARK  253  A    between atoms: _629  and  _630
REMARK  254  A    between atoms: _633  and  _635
REMARK  255  A    between atoms: _635  and  _636
REMARK  256  A    between atoms: _635  and  _638
REMARK  257  A    between atoms: _638  and  _639
REMARK  258  A    between atoms: _644  and  _646
REMARK  259  A    between atoms: _646  and  _647
REMARK  260  A    between atoms: _646  and  _649
REMARK  261  A    between atoms: _649  and  _650
REMARK                            x       y       z     vdW  Elec       q    Type
REMARK                         _______ _______ _______ _____ _____    ______ ____
ROOT
ATOM      1  CA  GLU A   1      25.775  14.000  27.376  0.00  0.00    +0.134 C 
ENDROOT
BRANCH   1   2
ATOM      2  N   GLU A   1      26.165  12.858  28.198  0.00  0.00    -0.239 NA
ATOM      3  H   GLU A   1      26.365  11.951  27.730  0.00  0.00    +0.142 HD
ENDBRANCH   1   2
BRANCH   1   4
ATOM      4  C   GLU A   1      24.441  14.578  27.843  0.00  0.00    +0.224 C 
ATOM      5  O   GLU A   1      24.332  15.784  28.066  0.00  0.00    -0.287 OA
ENDBRANCH   1   4
BRANCH   1   6
ATOM      6  CB  GLU A   1      25.686  13.596  25.900  0.00  0.00    +0.037 C 
BRANCH   6   7
ATOM      7  CG  GLU A   1      25.368  14.752  24.946  0.00  0.00    +0.116 C 
BRANCH   7   8
ATOM      8  CD  GLU A   1      24.840  14.290  23.594  0.00  0.00    +0.365 C 
ATOM      9  OE2 GLU A   1      24.923  13.082  23.291  0.00  0.00    -0.246 OA
ATOM     10  OE1 GLU A   1      24.334  15.139  22.829  0.00  0.00    -0.246 OA
ENDBRANCH   7   8
ENDBRANCH   6   7
ENDBRANCH   1   6
TORSDOF 5
REMARK  Name = ../refined-set-2016/2zym/2zym_pocket.pdb
REMARK  261 active torsions:
REMARK  status: ('A' for Active; 'I' for Inactive)
REMARK    1  A    between atoms: _1  and  _3
REMARK    2  A    between atoms: _3  and  _4
REMARK    3  A    between atoms: _3  and  _6
REMARK    4  A    between atoms: _6  and  _7
REMARK    5  A    between atoms: _7  and  _8
REMARK    6  A    between atoms: _11  and  _13
REMARK    7  A    between atoms: _13  and  _14
REMARK    8  A    between atoms: _13  and  _16
REMARK    9  A    between atoms: _16  and  _17
REMARK   10  A    between atoms: _22  and  _24
REMARK   11  A    between atoms: _24  and  _25
REMARK   12  A    between atoms: _28  and  _30
REMARK   13  A    between atoms: _30  and  _31
REMARK   14  A    between atoms: _30  and  _33
REMARK   15  A    between atoms: _33  and  _34
REMARK   16  A    between atoms: _37  and  _39
REMARK   17  A    between atoms: _39  and  _40
REMARK   18  A    between atoms: _39  and  _42
REMARK   19  A    between atoms: _42  and  _43
REMARK   20  A    between atoms: _43  and  _44
REMARK   21  A    between atoms: _49  and  _51
REMARK   22  A    between atoms: _51  and  _52
REMARK   23  A    between atoms: _51  and  _54
REMARK   24  A    between atoms: _57  and  _59
REMARK   25  A    between atoms: _59  and  _60
REMARK   26  A    between atoms: _63  and  _65
REMARK   27  A    between atoms: _65  and  _66
REMARK   28  A    between atoms: _65  and  _68
REMARK   29  A    between atoms: _68  and  _69
REMARK   30  A    between atoms: _72  and  _74
REMARK   31  A    between atoms: _74  and  _75
REMARK   32  A    between atoms: _74  and  _77
REMARK   33  A    between atoms: _77  and  _78
REMARK   34  A    between atoms: _81  and  _83
REMARK   35  A    between atoms: _83  and  _84
REMARK   36  A    between atoms: _83  and  _86
REMARK   37  A    between atoms: _86  and  _87
REMARK   38  A    between atoms: _87  and  _88
REMARK   39  A    between atoms: _88  and  _89
REMARK   40  A    between atoms: _89  and  _90
REMARK   41  A    between atoms: _94  and  _96
REMARK   42  A    between atoms: _96  and  _97
REMARK   43  A    between atoms: _96  and  _99
REMARK   44  A    between atoms: _99  and  _100
REMARK   45  A    between atoms: _100  and  _101
REMARK   46  A    between atoms: _106  and  _108
REMARK   47  A    between atoms: _108  and  _109
REMARK   48  A    between atoms: _108  and  _111
REMARK   49  A    between atoms: _111  and  _112
REMARK   50  A    between atoms: _112  and  _113
REMARK   51  A    between atoms: _118  and  _120
REMARK   52  A    between atoms: _120  and  _121
REMARK   53  A    between atoms: _120  and  _123
REMARK   54  A    between atoms: _123  and  _124
REMARK   55  A    between atoms: _124  and  _125
REMARK   56  A    between atoms: _128  and  _130
REMARK   57  A    between atoms: _130  and  _131
REMARK   58  A    between atoms: _130  and  _133
REMARK   59  A    between atoms: _133  and  _134
REMARK   60  A    between atoms: _134  and  _135
REMARK   61  A    between atoms: _135  and  _136
REMARK   62  A    between atoms: _136  and  _137
REMARK   63  A    between atoms: _141  and  _143
REMARK   64  A    between atoms: _143  and  _144
REMARK   65  A    between atoms: _143  and  _146
REMARK   66  A    between atoms: _146  and  _147
REMARK   67  A    between atoms: _150  and  _152
REMARK   68  A    between atoms: _152  and  _153
REMARK   69  A    between atoms: _152  and  _155
REMARK   70  A    between atoms: _155  and  _156
REMARK   71  A    between atoms: _167  and  _168
REMARK   72  A    between atoms: _173  and  _175
REMARK   73  A    between atoms: _175  and  _176
REMARK   74  A    between atoms: _175  and  _178
REMARK   75  A    between atoms: _178  and  _179
REMARK   76  A    between atoms: _184  and  _186
REMARK   77  A    between atoms: _186  and  _187
REMARK   78  A    between atoms: _186  and  _189
REMARK   79  A    between atoms: _189  and  _190
REMARK   80  A    between atoms: _193  and  _195
REMARK   81  A    between atoms: _195  and  _196
REMARK   82  A    between atoms: _195  and  _198
REMARK   83  A    between atoms: _198  and  _199
REMARK   84  A    between atoms: _199  and  _200
REMARK   85  A    between atoms: _200  and  _201
REMARK   86  A    between atoms: _210  and  _212
REMARK   87  A    between atoms: _212  and  _213
REMARK   88  A    between atoms: _212  and  _215
REMARK   89  A    between atoms: _215  and  _216
REMARK   90  A    between atoms: _219  and  _221
REMARK   91  A    between atoms: _221  and  _222
REMARK   92  A    between atoms: _221  and  _224
REMARK   93  A    between atoms: _224  and  _225
REMARK   94  A    between atoms: _225  and  _226
REMARK   95  A    between atoms: _229  and  _231
REMARK   96  A    between atoms: _231  and  _232
REMARK   97  A    between atoms: _231  and  _234
REMARK   98  A    between atoms: _234  and  _235
REMARK   99  A    between atoms: _235  and  _236
REMARK  100  A    between atoms: _236  and  _237
REMARK  101  A    between atoms: _237  and  _238
REMARK  102  A    between atoms: _242  and  _244
REMARK  103  A    between atoms: _244  and  _245
REMARK  104  A    between atoms: _248  and  _250
REMARK  105  A    between atoms: _250  and  _251
REMARK  106  A    between atoms: _250  and  _253
REMARK  107  A    between atoms: _253  and  _254
REMARK  108  A    between atoms: _254  and  _255
REMARK  109  A    between atoms: _258  and  _260
REMARK  110  A    between atoms: _260  and  _261
REMARK  111  A    between atoms: _260  and  _263
REMARK  112  A    between atoms: _263  and  _264
REMARK  113  A    between atoms: _266  and  _268
REMARK  114  A    between atoms: _268  and  _269
REMARK  115  A    between atoms: _268  and  _271
REMARK  116  A    between atoms: _274  and  _276
REMARK  117  A    between atoms: _276  and  _277
REMARK  118  A    between atoms: _276  and  _279
REMARK  119  A    between atoms: _279  and  _280
REMARK  120  A    between atoms: _280  and  _281
REMARK  121  A    between atoms: _284  and  _286
REMARK  122  A    between atoms: _286  and  _287
REMARK  123  A    between atoms: _286  and  _289
REMARK  124  A    between atoms: _289  and  _290
REMARK  125  A    between atoms: _295  and  _297
REMARK  126  A    between atoms: _297  and  _298
REMARK  127  A    between atoms: _297  and  _300
REMARK  128  A    between atoms: _300  and  _301
REMARK  129  A    between atoms: _306  and  _308
REMARK  130  A    between atoms: _308  and  _309
REMARK  131  A    between atoms: _308  and  _311
REMARK  132  A    between atoms: _311  and  _312
REMARK  133  A    between atoms: _318  and  _320
REMARK  134  A    between atoms: _320  and  _321
REMARK  135  A    between atoms: _320  and  _323
REMARK  136  A    between atoms: _323  and  _324
REMARK  137  A    between atoms: _329  and  _330
REMARK  138  A    between atoms: _332  and  _334
REMARK  139  A    between atoms: _334  and  _335
REMARK  140  A    between atoms: _334  and  _337
REMARK  141  A    between atoms: _337  and  _338
REMARK  142  A    between atoms: _343  and  _344
REMARK  143  A    between atoms: _346  and  _348
REMARK  144  A    between atoms: _348  and  _349
REMARK  145  A    between atoms: _348  and  _351
REMARK  146  A    between atoms: _351  and  _352
REMARK  147  A    between atoms: _355  and  _357
REMARK  148  A    between atoms: _357  and  _358
REMARK  149  A    between atoms: _357  and  _360
REMARK  150  A    between atoms: _360  and  _361
REMARK  151  A    between atoms: _364  and  _366
REMARK  152  A    between atoms: _366  and  _367
REMARK  153  A    between atoms: _366  and  _369
REMARK  154  A    between atoms: _369  and  _370
REMARK  155  A    between atoms: _370  and  _371
REMARK  156  A    between atoms: _371  and  _372
REMARK  157  A    between atoms: _372  and  _373
REMARK  158  A    between atoms: _377  and  _379
REMARK  159  A    between atoms: _379  and  _380
REMARK  160  A    between atoms: _383  and  _385
REMARK  161  A    between atoms: _385  and  _386
REMARK  162  A    between atoms: _385  and  _388
REMARK  163  A    between atoms: _388  and  _389
REMARK  164  A    between atoms: _392  and  _394
REMARK  165  A    between atoms: _394  and  _395
REMARK  166  A    between atoms: _394  and  _397
REMARK  167  A    between atoms: _397  and  _398
REMARK  168  A    between atoms: _401  and  _403
REMARK  169  A    between atoms: _403  and  _404
REMARK  170  A    between atoms: _403  and  _406
REMARK  171  A    between atoms: _409  and  _411
REMARK  172  A    between atoms: _411  and  _412
REMARK  173  A    between atoms: _411  and  _414
REMARK  174  A    between atoms: _414  and  _415
REMARK  175  A    between atoms: _420  and  _422
REMARK  176  A    between atoms: _422  and  _423
REMARK  177  A    between atoms: _422  and  _425
REMARK  178  A    between atoms: _425  and  _426
REMARK  179  A    between atoms: _431  and  _433
REMARK  180  A    between atoms: _433  and  _434
REMARK  181  A    between atoms: _437  and  _438
REMARK  182  A    between atoms: _443  and  _445
REMARK  183  A    between atoms: _445  and  _446
REMARK  184  A    between atoms: _445  and  _448
REMARK  185  A    between atoms: _448  and  _449
REMARK  186  A    between atoms: _459  and  _461
REMARK  187  A    between atoms: _461  and  _462
REMARK  188  A    between atoms: _465  and  _467
REMARK  189  A    between atoms: _467  and  _468
REMARK  190  A    between atoms: _467  and  _470
REMARK  191  A    between atoms: _470  and  _471
REMARK  192  A    between atoms: _476  and  _477
REMARK  193  A    between atoms: _479  and  _481
REMARK  194  A    between atoms: _481  and  _482
REMARK  195  A    between atoms: _481  and  _484
REMARK  196  A    between atoms: _484  and  _485
REMARK  197  A    between atoms: _491  and  _493
REMARK  198  A    between atoms: _493  and  _494
REMARK  199  A    between atoms: _493  and  _496
REMARK  200  A    between atoms: _496  and  _497
REMARK  201  A    between atoms: _500  and  _502
REMARK  202  A    between atoms: _502  and  _503
REMARK  203  A    between atoms: _505  and  _507
REMARK  204  A    between atoms: _507  and  _508
REMARK  205  A    between atoms: _507  and  _510
REMARK  206  A    between atoms: _513  and  _515
REMARK  207  A    between atoms: _515  and  _516
REMARK  208  A    between atoms: _515  and  _518
REMARK  209  A    between atoms: _518  and  _519
REMARK  210  A    between atoms: _519  and  _520
REMARK  211  A    between atoms: _520  and  _521
REMARK  212  A    between atoms: _521  and  _522
REMARK  213  A    between atoms: _526  and  _528
REMARK  214  A    between atoms: _528  and  _529
REMARK  215  A    between atoms: _528  and  _531
REMARK  216  A    between atoms: _531  and  _532
REMARK  217  A    between atoms: _532  and  _533
REMARK  218  A    between atoms: _533  and  _534
REMARK  219  A    between atoms: _543  and  _545
REMARK  220  A    between atoms: _545  and  _546
REMARK  221  A    between atoms: _545  and  _548
REMARK  222  A    between atoms: _548  and  _549
REMARK  223  A    between atoms: _549  and  _550
REMARK  224  A    between atoms: _553  and  _555
REMARK  225  A    between atoms: _555  and  _556
REMARK  226  A    between atoms: _555  and  _558
REMARK  227  A    between atoms: _558  and  _559
REMARK  228  A    between atoms: _559  and  _560
REMARK  229  A    between atoms: _563  and  _564
REMARK  230  A    between atoms: _569  and  _571
REMARK  231  A    between atoms: _571  and  _572
REMARK  232  A    between atoms: _571  and  _574
REMARK  233  A    between atoms: _574  and  _575
REMARK  234  A    between atoms: _575  and  _576
REMARK  235  A    between atoms: _578  and  _580
REMARK  236  A    between atoms: _580  and  _581
REMARK  237  A    between atoms: _583  and  _585
REMARK  238  A    between atoms: _585  and  _586
REMARK  239  A    between atoms: _585  and  _588
REMARK  240  A    between atoms: _591  and  _593
REMARK  241  A    between atoms: _593  and  _594
REMARK  242  A    between atoms: _593  and  _596
REMARK  243  A    between atoms: _596  and  _597
REMARK  244  A    between atoms: _607  and  _609
REMARK  245  A    between atoms: _609  and  _610
REMARK  246  A    between atoms: _609  and  _612
REMARK  247  A    between atoms: _612  and  _613
REMARK  248  A    between atoms: _613  and  _614
REMARK  249  A    between atoms: _618  and  _619
REMARK  250  A    between atoms: _624  and  _626
REMARK  251  A    between atoms: _626  and  _627
REMARK  252  A    between atoms: _626  and  _629
REMARK  253  A    between atoms: _629  and  _630
REMARK  254  A    between atoms: _633  and  _635
REMARK  255  A    between atoms: _635  and  _636
REMARK  256  A    between atoms: _635  and  _638
REMARK  257  A    between atoms: _638  and  _639
REMARK  258  A    between atoms: _644  and  _646
REMARK  259  A    between atoms: _646  and  _647
REMARK  260  A    between atoms: _646  and  _649
REMARK  261  A    between atoms: _649  and  _650
REMARK                            x       y       z     vdW  Elec       q    Type
REMARK                         _______ _______ _______ _____ _____    ______ ____
ROOT
ATOM      1  CG  LYS A   1      23.512  18.500  26.481  0.00  0.00    -0.000 C 
ENDROOT
BRANCH   1   2
ATOM      2  CB  LYS A   1      22.410  18.597  27.533  0.00  0.00    +0.025 C 
BRANCH   2   3
ATOM      3  CA  LYS A   1      22.850  19.155  28.889  0.00  0.00    +0.133 C 
BRANCH   3   4
ATOM      4  N   LYS A   1      23.756  18.220  29.570  0.00  0.00    -0.239 NA
ATOM      5  H   LYS A   1      23.723  17.213  29.313  0.00  0.00    +0.142 HD
ENDBRANCH   3   4
BRANCH   3   6
ATOM      6  C   LYS A   1      21.615  19.510  29.724  0.00  0.00    +0.224 C 
ATOM      7  O   LYS A   1      20.812  20.354  29.320  0.00  0.00    -0.287 OA
ENDBRANCH   3   6
ENDBRANCH   2   3
ENDBRANCH   1   2
BRANCH   1   8
ATOM      8  CD  LYS A   1      22.985  17.897  25.179  0.00  0.00    -0.024 C 
BRANCH   8   9
ATOM      9  CE  LYS A   1      22.405  16.492  25.380  0.00  0.00    -0.086 C 
BRANCH   9  10
ATOM     10  NZ  LYS A   1      21.757  15.957  24.149  0.00  0.00    +0.380 N 
ATOM     11  HZ1 LYS A   1      21.383  15.006  24.341  0.00  0.00    -0.089 HD
ATOM     12  HZ2 LYS A   1      20.979  16.587  23.867  0.00  0.00    -0.089 HD
ATOM     13  HZ3 LYS A   1      22.459  15.906  23.383  0.00  0.00    -0.089 HD
ENDBRANCH   9  10
ENDBRANCH   8   9
ENDBRANCH   1   8
TORSDOF 7
REMARK  Name = ../refined-set-2016/2zym/2zym_pocket.pdb
REMARK  261 active torsions:
REMARK  status: ('A' for Active; 'I' for Inactive)
REMARK    1  A    between atoms: _1  and  _3
REMARK    2  A    between atoms: _3  and  _4
REMARK    3  A    between atoms: _3  and  _6
REMARK    4  A    between atoms: _6  and  _7
REMARK    5  A    between atoms: _7  and  _8
REMARK    6  A    between atoms: _11  and  _13
REMARK    7  A    between atoms: _13  and  _14
REMARK    8  A    between atoms: _13  and  _16
REMARK    9  A    between atoms: _16  and  _17
REMARK   10  A    between atoms: _22  and  _24
REMARK   11  A    between atoms: _24  and  _25
REMARK   12  A    between atoms: _28  and  _30
REMARK   13  A    between atoms: _30  and  _31
REMARK   14  A    between atoms: _30  and  _33
REMARK   15  A    between atoms: _33  and  _34
REMARK   16  A    between atoms: _37  and  _39
REMARK   17  A    between atoms: _39  and  _40
REMARK   18  A    between atoms: _39  and  _42
REMARK   19  A    between atoms: _42  and  _43
REMARK   20  A    between atoms: _43  and  _44
REMARK   21  A    between atoms: _49  and  _51
REMARK   22  A    between atoms: _51  and  _52
REMARK   23  A    between atoms: _51  and  _54
REMARK   24  A    between atoms: _57  and  _59
REMARK   25  A    between atoms: _59  and  _60
REMARK   26  A    between atoms: _63  and  _65
REMARK   27  A    between atoms: _65  and  _66
REMARK   28  A    between atoms: _65  and  _68
REMARK   29  A    between atoms: _68  and  _69
REMARK   30  A    between atoms: _72  and  _74
REMARK   31  A    between atoms: _74  and  _75
REMARK   32  A    between atoms: _74  and  _77
REMARK   33  A    between atoms: _77  and  _78
REMARK   34  A    between atoms: _81  and  _83
REMARK   35  A    between atoms: _83  and  _84
REMARK   36  A    between atoms: _83  and  _86
REMARK   37  A    between atoms: _86  and  _87
REMARK   38  A    between atoms: _87  and  _88
REMARK   39  A    between atoms: _88  and  _89
REMARK   40  A    between atoms: _89  and  _90
REMARK   41  A    between atoms: _94  and  _96
REMARK   42  A    between atoms: _96  and  _97
REMARK   43  A    between atoms: _96  and  _99
REMARK   44  A    between atoms: _99  and  _100
REMARK   45  A    between atoms: _100  and  _101
REMARK   46  A    between atoms: _106  and  _108
REMARK   47  A    between atoms: _108  and  _109
REMARK   48  A    between atoms: _108  and  _111
REMARK   49  A    between atoms: _111  and  _112
REMARK   50  A    between atoms: _112  and  _113
REMARK   51  A    between atoms: _118  and  _120
REMARK   52  A    between atoms: _120  and  _121
REMARK   53  A    between atoms: _120  and  _123
REMARK   54  A    between atoms: _123  and  _124
REMARK   55  A    between atoms: _124  and  _125
REMARK   56  A    between atoms: _128  and  _130
REMARK   57  A    between atoms: _130  and  _131
REMARK   58  A    between atoms: _130  and  _133
REMARK   59  A    between atoms: _133  and  _134
REMARK   60  A    between atoms: _134  and  _135
REMARK   61  A    between atoms: _135  and  _136
REMARK   62  A    between atoms: _136  and  _137
REMARK   63  A    between atoms: _141  and  _143
REMARK   64  A    between atoms: _143  and  _144
REMARK   65  A    between atoms: _143  and  _146
REMARK   66  A    between atoms: _146  and  _147
REMARK   67  A    between atoms: _150  and  _152
REMARK   68  A    between atoms: _152  and  _153
REMARK   69  A    between atoms: _152  and  _155
REMARK   70  A    between atoms: _155  and  _156
REMARK   71  A    between atoms: _167  and  _168
REMARK   72  A    between atoms: _173  and  _175
REMARK   73  A    between atoms: _175  and  _176
REMARK   74  A    between atoms: _175  and  _178
REMARK   75  A    between atoms: _178  and  _179
REMARK   76  A    between atoms: _184  and  _186
REMARK   77  A    between atoms: _186  and  _187
REMARK   78  A    between atoms: _186  and  _189
REMARK   79  A    between atoms: _189  and  _190
REMARK   80  A    between atoms: _193  and  _195
REMARK   81  A    between atoms: _195  and  _196
REMARK   82  A    between atoms: _195  and  _198
REMARK   83  A    between atoms: _198  and  _199
REMARK   84  A    between atoms: _199  and  _200
REMARK   85  A    between atoms: _200  and  _201
REMARK   86  A    between atoms: _210  and  _212
REMARK   87  A    between atoms: _212  and  _213
REMARK   88  A    between atoms: _212  and  _215
REMARK   89  A    between atoms: _215  and  _216
REMARK   90  A    between atoms: _219  and  _221
REMARK   91  A    between atoms: _221  and  _222
REMARK   92  A    between atoms: _221  and  _224
REMARK   93  A    between atoms: _224  and  _225
REMARK   94  A    between atoms: _225  and  _226
REMARK   95  A    between atoms: _229  and  _231
REMARK   96  A    between atoms: _231  and  _232
REMARK   97  A    between atoms: _231  and  _234
REMARK   98  A    between atoms: _234  and  _235
REMARK   99  A    between atoms: _235  and  _236
REMARK  100  A    between atoms: _236  and  _237
REMARK  101  A    between atoms: _237  and  _238
REMARK  102  A    between atoms: _242  and  _244
REMARK  103  A    between atoms: _244  and  _245
REMARK  104  A    between atoms: _248  and  _250
REMARK  105  A    between atoms: _250  and  _251
REMARK  106  A    between atoms: _250  and  _253
REMARK  107  A    between atoms: _253  and  _254
REMARK  108  A    between atoms: _254  and  _255
REMARK  109  A    between atoms: _258  and  _260
REMARK  110  A    between atoms: _260  and  _261
REMARK  111  A    between atoms: _260  and  _263
REMARK  112  A    between atoms: _263  and  _264
REMARK  113  A    between atoms: _266  and  _268
REMARK  114  A    between atoms: _268  and  _269
REMARK  115  A    between atoms: _268  and  _271
REMARK  116  A    between atoms: _274  and  _276
REMARK  117  A    between atoms: _276  and  _277
REMARK  118  A    between atoms: _276  and  _279
REMARK  119  A    between atoms: _279  and  _280
REMARK  120  A    between atoms: _280  and  _281
REMARK  121  A    between atoms: _284  and  _286
REMARK  122  A    between atoms: _286  and  _287
REMARK  123  A    between atoms: _286  and  _289
REMARK  124  A    between atoms: _289  and  _290
REMARK  125  A    between atoms: _295  and  _297
REMARK  126  A    between atoms: _297  and  _298
REMARK  127  A    between atoms: _297  and  _300
REMARK  128  A    between atoms: _300  and  _301
REMARK  129  A    between atoms: _306  and  _308
REMARK  130  A    between atoms: _308  and  _309
REMARK  131  A    between atoms: _308  and  _311
REMARK  132  A    between atoms: _311  and  _312
REMARK  133  A    between atoms: _318  and  _320
REMARK  134  A    between atoms: _320  and  _321
REMARK  135  A    between atoms: _320  and  _323
REMARK  136  A    between atoms: _323  and  _324
REMARK  137  A    between atoms: _329  and  _330
REMARK  138  A    between atoms: _332  and  _334
REMARK  139  A    between atoms: _334  and  _335
REMARK  140  A    between atoms: _334  and  _337
REMARK  141  A    between atoms: _337  and  _338
REMARK  142  A    between atoms: _343  and  _344
REMARK  143  A    between atoms: _346  and  _348
REMARK  144  A    between atoms: _348  and  _349
REMARK  145  A    between atoms: _348  and  _351
REMARK  146  A    between atoms: _351  and  _352
REMARK  147  A    between atoms: _355  and  _357
REMARK  148  A    between atoms: _357  and  _358
REMARK  149  A    between atoms: _357  and  _360
REMARK  150  A    between atoms: _360  and  _361
REMARK  151  A    between atoms: _364  and  _366
REMARK  152  A    between atoms: _366  and  _367
REMARK  153  A    between atoms: _366  and  _369
REMARK  154  A    between atoms: _369  and  _370
REMARK  155  A    between atoms: _370  and  _371
REMARK  156  A    between atoms: _371  and  _372
REMARK  157  A    between atoms: _372  and  _373
REMARK  158  A    between atoms: _377  and  _379
REMARK  159  A    between atoms: _379  and  _380
REMARK  160  A    between atoms: _383  and  _385
REMARK  161  A    between atoms: _385  and  _386
REMARK  162  A    between atoms: _385  and  _388
REMARK  163  A    between atoms: _388  and  _389
REMARK  164  A    between atoms: _392  and  _394
REMARK  165  A    between atoms: _394  and  _395
REMARK  166  A    between atoms: _394  and  _397
REMARK  167  A    between atoms: _397  and  _398
REMARK  168  A    between atoms: _401  and  _403
REMARK  169  A    between atoms: _403  and  _404
REMARK  170  A    between atoms: _403  and  _406
REMARK  171  A    between atoms: _409  and  _411
REMARK  172  A    between atoms: _411  and  _412
REMARK  173  A    between atoms: _411  and  _414
REMARK  174  A    between atoms: _414  and  _415
REMARK  175  A    between atoms: _420  and  _422
REMARK  176  A    between atoms: _422  and  _423
REMARK  177  A    between atoms: _422  and  _425
REMARK  178  A    between atoms: _425  and  _426
REMARK  179  A    between atoms: _431  and  _433
REMARK  180  A    between atoms: _433  and  _434
REMARK  181  A    between atoms: _437  and  _438
REMARK  182  A    between atoms: _443  and  _445
REMARK  183  A    between atoms: _445  and  _446
REMARK  184  A    between atoms: _445  and  _448
REMARK  185  A    between atoms: _448  and  _449
REMARK  186  A    between atoms: _459  and  _461
REMARK  187  A    between atoms: _461  and  _462
REMARK  188  A    between atoms: _465  and  _467
REMARK  189  A    between atoms: _467  and  _468
REMARK  190  A    between atoms: _467  and  _470
REMARK  191  A    between atoms: _470  and  _471
REMARK  192  A    between atoms: _476  and  _477
REMARK  193  A    between atoms: _479  and  _481
REMARK  194  A    between atoms: _481  and  _482
REMARK  195  A    between atoms: _481  and  _484
REMARK  196  A    between atoms: _484  and  _485
REMARK  197  A    between atoms: _491  and  _493
REMARK  198  A    between atoms: _493  and  _494
REMARK  199  A    between atoms: _493  and  _496
REMARK  200  A    between atoms: _496  and  _497
REMARK  201  A    between atoms: _500  and  _502
REMARK  202  A    between atoms: _502  and  _503
REMARK  203  A    between atoms: _505  and  _507
REMARK  204  A    between atoms: _507  and  _508
REMARK  205  A    between atoms: _507  and  _510
REMARK  206  A    between atoms: _513  and  _515
REMARK  207  A    between atoms: _515  and  _516
REMARK  208  A    between atoms: _515  and  _518
REMARK  209  A    between atoms: _518  and  _519
REMARK  210  A    between atoms: _519  and  _520
REMARK  211  A    between atoms: _520  and  _521
REMARK  212  A    between atoms: _521  and  _522
REMARK  213  A    between atoms: _526  and  _528
REMARK  214  A    between atoms: _528  and  _529
REMARK  215  A    between atoms: _528  and  _531
REMARK  216  A    between atoms: _531  and  _532
REMARK  217  A    between atoms: _532  and  _533
REMARK  218  A    between atoms: _533  and  _534
REMARK  219  A    between atoms: _543  and  _545
REMARK  220  A    between atoms: _545  and  _546
REMARK  221  A    between atoms: _545  and  _548
REMARK  222  A    between atoms: _548  and  _549
REMARK  223  A    between atoms: _549  and  _550
REMARK  224  A    between atoms: _553  and  _555
REMARK  225  A    between atoms: _555  and  _556
REMARK  226  A    between atoms: _555  and  _558
REMARK  227  A    between atoms: _558  and  _559
REMARK  228  A    between atoms: _559  and  _560
REMARK  229  A    between atoms: _563  and  _564
REMARK  230  A    between atoms: _569  and  _571
REMARK  231  A    between atoms: _571  and  _572
REMARK  232  A    between atoms: _571  and  _574
REMARK  233  A    between atoms: _574  and  _575
REMARK  234  A    between atoms: _575  and  _576
REMARK  235  A    between atoms: _578  and  _580
REMARK  236  A    between atoms: _580  and  _581
REMARK  237  A    between atoms: _583  and  _585
REMARK  238  A    between atoms: _585  and  _586
REMARK  239  A    between atoms: _585  and  _588
REMARK  240  A    between atoms: _591  and  _593
REMARK  241  A    between atoms: _593  and  _594
REMARK  242  A    between atoms: _593  and  _596
REMARK  243  A    between atoms: _596  and  _597
REMARK  244  A    between atoms: _607  and  _609
REMARK  245  A    between atoms: _609  and  _610
REMARK  246  A    between atoms: _609  and  _612
REMARK  247  A    between atoms: _612  and  _613
REMARK  248  A    between atoms: _613  and  _614
REMARK  249  A    between atoms: _618  and  _619
REMARK  250  A    between atoms: _624  and  _626
REMARK  251  A    between atoms: _626  and  _627
REMARK  252  A    between atoms: _626  and  _629
REMARK  253  A    between atoms: _629  and  _630
REMARK  254  A    between atoms: _633  and  _635
REMARK  255  A    between atoms: _635  and  _636
REMARK  256  A    between atoms: _635  and  _638
REMARK  257  A    between atoms: _638  and  _639
REMARK  258  A    between atoms: _644  and  _646
REMARK  259  A    between atoms: _646  and  _647
REMARK  260  A    between atoms: _646  and  _649
REMARK  261  A    between atoms: _649  and  _650
REMARK                            x       y       z     vdW  Elec       q    Type
REMARK                         _______ _______ _______ _____ _____    ______ ____
ROOT
ATOM      1  CA  ALA A   1      17.097  -4.290  27.956  0.00  0.00    +0.133 C 
ATOM      2  CB  ALA A   1      16.565  -4.082  26.540  0.00  0.00    +0.027 C 
ENDROOT
BRANCH   1   3
ATOM      3  N   ALA A   1      16.454  -3.367  28.881  0.00  0.00    -0.239 NA
ATOM      4  H   ALA A   1      16.922  -2.463  29.094  0.00  0.00    +0.142 HD
ENDBRANCH   1   3
BRANCH   1   5
ATOM      5  C   ALA A   1      18.609  -4.140  27.971  0.00  0.00    +0.224 C 
ATOM      6  O   ALA A   1      19.135  -3.027  28.042  0.00  0.00    -0.287 OA
ENDBRANCH   1   5
TORSDOF 2
REMARK  Name = ../refined-set-2016/2zym/2zym_pocket.pdb
REMARK  261 active torsions:
REMARK  status: ('A' for Active; 'I' for Inactive)
REMARK    1  A    between atoms: _1  and  _3
REMARK    2  A    between atoms: _3  and  _4
REMARK    3  A    between atoms: _3  and  _6
REMARK    4  A    between atoms: _6  and  _7
REMARK    5  A    between atoms: _7  and  _8
REMARK    6  A    between atoms: _11  and  _13
REMARK    7  A    between atoms: _13  and  _14
REMARK    8  A    between atoms: _13  and  _16
REMARK    9  A    between atoms: _16  and  _17
REMARK   10  A    between atoms: _22  and  _24
REMARK   11  A    between atoms: _24  and  _25
REMARK   12  A    between atoms: _28  and  _30
REMARK   13  A    between atoms: _30  and  _31
REMARK   14  A    between atoms: _30  and  _33
REMARK   15  A    between atoms: _33  and  _34
REMARK   16  A    between atoms: _37  and  _39
REMARK   17  A    between atoms: _39  and  _40
REMARK   18  A    between atoms: _39  and  _42
REMARK   19  A    between atoms: _42  and  _43
REMARK   20  A    between atoms: _43  and  _44
REMARK   21  A    between atoms: _49  and  _51
REMARK   22  A    between atoms: _51  and  _52
REMARK   23  A    between atoms: _51  and  _54
REMARK   24  A    between atoms: _57  and  _59
REMARK   25  A    between atoms: _59  and  _60
REMARK   26  A    between atoms: _63  and  _65
REMARK   27  A    between atoms: _65  and  _66
REMARK   28  A    between atoms: _65  and  _68
REMARK   29  A    between atoms: _68  and  _69
REMARK   30  A    between atoms: _72  and  _74
REMARK   31  A    between atoms: _74  and  _75
REMARK   32  A    between atoms: _74  and  _77
REMARK   33  A    between atoms: _77  and  _78
REMARK   34  A    between atoms: _81  and  _83
REMARK   35  A    between atoms: _83  and  _84
REMARK   36  A    between atoms: _83  and  _86
REMARK   37  A    between atoms: _86  and  _87
REMARK   38  A    between atoms: _87  and  _88
REMARK   39  A    between atoms: _88  and  _89
REMARK   40  A    between atoms: _89  and  _90
REMARK   41  A    between atoms: _94  and  _96
REMARK   42  A    between atoms: _96  and  _97
REMARK   43  A    between atoms: _96  and  _99
REMARK   44  A    between atoms: _99  and  _100
REMARK   45  A    between atoms: _100  and  _101
REMARK   46  A    between atoms: _106  and  _108
REMARK   47  A    between atoms: _108  and  _109
REMARK   48  A    between atoms: _108  and  _111
REMARK   49  A    between atoms: _111  and  _112
REMARK   50  A    between atoms: _112  and  _113
REMARK   51  A    between atoms: _118  and  _120
REMARK   52  A    between atoms: _120  and  _121
REMARK   53  A    between atoms: _120  and  _123
REMARK   54  A    between atoms: _123  and  _124
REMARK   55  A    between atoms: _124  and  _125
REMARK   56  A    between atoms: _128  and  _130
REMARK   57  A    between atoms: _130  and  _131
REMARK   58  A    between atoms: _130  and  _133
REMARK   59  A    between atoms: _133  and  _134
REMARK   60  A    between atoms: _134  and  _135
REMARK   61  A    between atoms: _135  and  _136
REMARK   62  A    between atoms: _136  and  _137
REMARK   63  A    between atoms: _141  and  _143
REMARK   64  A    between atoms: _143  and  _144
REMARK   65  A    between atoms: _143  and  _146
REMARK   66  A    between atoms: _146  and  _147
REMARK   67  A    between atoms: _150  and  _152
REMARK   68  A    between atoms: _152  and  _153
REMARK   69  A    between atoms: _152  and  _155
REMARK   70  A    between atoms: _155  and  _156
REMARK   71  A    between atoms: _167  and  _168
REMARK   72  A    between atoms: _173  and  _175
REMARK   73  A    between atoms: _175  and  _176
REMARK   74  A    between atoms: _175  and  _178
REMARK   75  A    between atoms: _178  and  _179
REMARK   76  A    between atoms: _184  and  _186
REMARK   77  A    between atoms: _186  and  _187
REMARK   78  A    between atoms: _186  and  _189
REMARK   79  A    between atoms: _189  and  _190
REMARK   80  A    between atoms: _193  and  _195
REMARK   81  A    between atoms: _195  and  _196
REMARK   82  A    between atoms: _195  and  _198
REMARK   83  A    between atoms: _198  and  _199
REMARK   84  A    between atoms: _199  and  _200
REMARK   85  A    between atoms: _200  and  _201
REMARK   86  A    between atoms: _210  and  _212
REMARK   87  A    between atoms: _212  and  _213
REMARK   88  A    between atoms: _212  and  _215
REMARK   89  A    between atoms: _215  and  _216
REMARK   90  A    between atoms: _219  and  _221
REMARK   91  A    between atoms: _221  and  _222
REMARK   92  A    between atoms: _221  and  _224
REMARK   93  A    between atoms: _224  and  _225
REMARK   94  A    between atoms: _225  and  _226
REMARK   95  A    between atoms: _229  and  _231
REMARK   96  A    between atoms: _231  and  _232
REMARK   97  A    between atoms: _231  and  _234
REMARK   98  A    between atoms: _234  and  _235
REMARK   99  A    between atoms: _235  and  _236
REMARK  100  A    between atoms: _236  and  _237
REMARK  101  A    between atoms: _237  and  _238
REMARK  102  A    between atoms: _242  and  _244
REMARK  103  A    between atoms: _244  and  _245
REMARK  104  A    between atoms: _248  and  _250
REMARK  105  A    between atoms: _250  and  _251
REMARK  106  A    between atoms: _250  and  _253
REMARK  107  A    between atoms: _253  and  _254
REMARK  108  A    between atoms: _254  and  _255
REMARK  109  A    between atoms: _258  and  _260
REMARK  110  A    between atoms: _260  and  _261
REMARK  111  A    between atoms: _260  and  _263
REMARK  112  A    between atoms: _263  and  _264
REMARK  113  A    between atoms: _266  and  _268
REMARK  114  A    between atoms: _268  and  _269
REMARK  115  A    between atoms: _268  and  _271
REMARK  116  A    between atoms: _274  and  _276
REMARK  117  A    between atoms: _276  and  _277
REMARK  118  A    between atoms: _276  and  _279
REMARK  119  A    between atoms: _279  and  _280
REMARK  120  A    between atoms: _280  and  _281
REMARK  121  A    between atoms: _284  and  _286
REMARK  122  A    between atoms: _286  and  _287
REMARK  123  A    between atoms: _286  and  _289
REMARK  124  A    between atoms: _289  and  _290
REMARK  125  A    between atoms: _295  and  _297
REMARK  126  A    between atoms: _297  and  _298
REMARK  127  A    between atoms: _297  and  _300
REMARK  128  A    between atoms: _300  and  _301
REMARK  129  A    between atoms: _306  and  _308
REMARK  130  A    between atoms: _308  and  _309
REMARK  131  A    between atoms: _308  and  _311
REMARK  132  A    between atoms: _311  and  _312
REMARK  133  A    between atoms: _318  and  _320
REMARK  134  A    between atoms: _320  and  _321
REMARK  135  A    between atoms: _320  and  _323
REMARK  136  A    between atoms: _323  and  _324
REMARK  137  A    between atoms: _329  and  _330
REMARK  138  A    between atoms: _332  and  _334
REMARK  139  A    between atoms: _334  and  _335
REMARK  140  A    between atoms: _334  and  _337
REMARK  141  A    between atoms: _337  and  _338
REMARK  142  A    between atoms: _343  and  _344
REMARK  143  A    between atoms: _346  and  _348
REMARK  144  A    between atoms: _348  and  _349
REMARK  145  A    between atoms: _348  and  _351
REMARK  146  A    between atoms: _351  and  _352
REMARK  147  A    between atoms: _355  and  _357
REMARK  148  A    between atoms: _357  and  _358
REMARK  149  A    between atoms: _357  and  _360
REMARK  150  A    between atoms: _360  and  _361
REMARK  151  A    between atoms: _364  and  _366
REMARK  152  A    between atoms: _366  and  _367
REMARK  153  A    between atoms: _366  and  _369
REMARK  154  A    between atoms: _369  and  _370
REMARK  155  A    between atoms: _370  and  _371
REMARK  156  A    between atoms: _371  and  _372
REMARK  157  A    between atoms: _372  and  _373
REMARK  158  A    between atoms: _377  and  _379
REMARK  159  A    between atoms: _379  and  _380
REMARK  160  A    between atoms: _383  and  _385
REMARK  161  A    between atoms: _385  and  _386
REMARK  162  A    between atoms: _385  and  _388
REMARK  163  A    between atoms: _388  and  _389
REMARK  164  A    between atoms: _392  and  _394
REMARK  165  A    between atoms: _394  and  _395
REMARK  166  A    between atoms: _394  and  _397
REMARK  167  A    between atoms: _397  and  _398
REMARK  168  A    between atoms: _401  and  _403
REMARK  169  A    between atoms: _403  and  _404
REMARK  170  A    between atoms: _403  and  _406
REMARK  171  A    between atoms: _409  and  _411
REMARK  172  A    between atoms: _411  and  _412
REMARK  173  A    between atoms: _411  and  _414
REMARK  174  A    between atoms: _414  and  _415
REMARK  175  A    between atoms: _420  and  _422
REMARK  176  A    between atoms: _422  and  _423
REMARK  177  A    between atoms: _422  and  _425
REMARK  178  A    between atoms: _425  and  _426
REMARK  179  A    between atoms: _431  and  _433
REMARK  180  A    between atoms: _433  and  _434
REMARK  181  A    between atoms: _437  and  _438
REMARK  182  A    between atoms: _443  and  _445
REMARK  183  A    between atoms: _445  and  _446
REMARK  184  A    between atoms: _445  and  _448
REMARK  185  A    between atoms: _448  and  _449
REMARK  186  A    between atoms: _459  and  _461
REMARK  187  A    between atoms: _461  and  _462
REMARK  188  A    between atoms: _465  and  _467
REMARK  189  A    between atoms: _467  and  _468
REMARK  190  A    between atoms: _467  and  _470
REMARK  191  A    between atoms: _470  and  _471
REMARK  192  A    between atoms: _476  and  _477
REMARK  193  A    between atoms: _479  and  _481
REMARK  194  A    between atoms: _481  and  _482
REMARK  195  A    between atoms: _481  and  _484
REMARK  196  A    between atoms: _484  and  _485
REMARK  197  A    between atoms: _491  and  _493
REMARK  198  A    between atoms: _493  and  _494
REMARK  199  A    between atoms: _493  and  _496
REMARK  200  A    between atoms: _496  and  _497
REMARK  201  A    between atoms: _500  and  _502
REMARK  202  A    between atoms: _502  and  _503
REMARK  203  A    between atoms: _505  and  _507
REMARK  204  A    between atoms: _507  and  _508
REMARK  205  A    between atoms: _507  and  _510
REMARK  206  A    between atoms: _513  and  _515
REMARK  207  A    between atoms: _515  and  _516
REMARK  208  A    between atoms: _515  and  _518
REMARK  209  A    between atoms: _518  and  _519
REMARK  210  A    between atoms: _519  and  _520
REMARK  211  A    between atoms: _520  and  _521
REMARK  212  A    between atoms: _521  and  _522
REMARK  213  A    between atoms: _526  and  _528
REMARK  214  A    between atoms: _528  and  _529
REMARK  215  A    between atoms: _528  and  _531
REMARK  216  A    between atoms: _531  and  _532
REMARK  217  A    between atoms: _532  and  _533
REMARK  218  A    between atoms: _533  and  _534
REMARK  219  A    between atoms: _543  and  _545
REMARK  220  A    between atoms: _545  and  _546
REMARK  221  A    between atoms: _545  and  _548
REMARK  222  A    between atoms: _548  and  _549
REMARK  223  A    between atoms: _549  and  _550
REMARK  224  A    between atoms: _553  and  _555
REMARK  225  A    between atoms: _555  and  _556
REMARK  226  A    between atoms: _555  and  _558
REMARK  227  A    between atoms: _558  and  _559
REMARK  228  A    between atoms: _559  and  _560
REMARK  229  A    between atoms: _563  and  _564
REMARK  230  A    between atoms: _569  and  _571
REMARK  231  A    between atoms: _571  and  _572
REMARK  232  A    between atoms: _571  and  _574
REMARK  233  A    between atoms: _574  and  _575
REMARK  234  A    between atoms: _575  and  _576
REMARK  235  A    between atoms: _578  and  _580
REMARK  236  A    between atoms: _580  and  _581
REMARK  237  A    between atoms: _583  and  _585
REMARK  238  A    between atoms: _585  and  _586
REMARK  239  A    between atoms: _585  and  _588
REMARK  240  A    between atoms: _591  and  _593
REMARK  241  A    between atoms: _593  and  _594
REMARK  242  A    between atoms: _593  and  _596
REMARK  243  A    between atoms: _596  and  _597
REMARK  244  A    between atoms: _607  and  _609
REMARK  245  A    between atoms: _609  and  _610
REMARK  246  A    between atoms: _609  and  _612
REMARK  247  A    between atoms: _612  and  _613
REMARK  248  A    between atoms: _613  and  _614
REMARK  249  A    between atoms: _618  and  _619
REMARK  250  A    between atoms: _624  and  _626
REMARK  251  A    between atoms: _626  and  _627
REMARK  252  A    between atoms: _626  and  _629
REMARK  253  A    between atoms: _629  and  _630
REMARK  254  A    between atoms: _633  and  _635
REMARK  255  A    between atoms: _635  and  _636
REMARK  256  A    between atoms: _635  and  _638
REMARK  257  A    between atoms: _638  and  _639
REMARK  258  A    between atoms: _644  and  _646
REMARK  259  A    between atoms: _646  and  _647
REMARK  260  A    between atoms: _646  and  _649
REMARK  261  A    between atoms: _649  and  _650
REMARK                            x       y       z     vdW  Elec       q    Type
REMARK                         _______ _______ _______ _____ _____    ______ ____
ROOT
ATOM      1  CA  SER A   2      24.942  -6.924  21.970  0.00  0.00    +0.178 C 
ENDROOT
BRANCH   1   4
ATOM      2  C   GLU A   1      23.486  -5.866  23.627  0.00  0.00    +0.238 C 
ATOM      3  O   GLU A   1      24.303  -4.994  23.923  0.00  0.00    -0.274 OA
ATOM      4  N   SER A   2      23.752  -6.873  22.802  0.00  0.00    -0.295 N 
ATOM      5  H   SER A   2      23.076  -7.662  22.749  0.00  0.00    +0.150 HD
BRANCH   2   6
ATOM      6  CA  GLU A   1      22.070  -5.860  24.199  0.00  0.00    +0.145 C 
BRANCH   6   7
ATOM      7  N   GLU A   1      21.927  -5.432  25.592  0.00  0.00    -0.238 NA
ATOM      8  H   GLU A   1      22.532  -4.671  25.961  0.00  0.00    +0.142 HD
ENDBRANCH   6   7
BRANCH   6   9
ATOM      9  CB  GLU A   1      21.140  -5.042  23.290  0.00  0.00    +0.038 C 
BRANCH   9  10
ATOM     10  CG  GLU A   1      21.337  -3.533  23.362  0.00  0.00    +0.116 C 
BRANCH  10  11
ATOM     11  CD  GLU A   1      20.262  -2.744  22.622  0.00  0.00    +0.365 C 
ATOM     12  OE2 GLU A   1      19.130  -3.250  22.442  0.00  0.00    -0.246 OA
ATOM     13  OE1 GLU A   1      20.555  -1.600  22.223  0.00  0.00    -0.246 OA
ENDBRANCH  10  11
ENDBRANCH   9  10
ENDBRANCH   6   9
ENDBRANCH   2   6
ENDBRANCH   1   4
BRANCH   1  14
ATOM     14  C   SER A   2      24.534  -7.510  20.633  0.00  0.00    +0.243 C 
ATOM     15  O   SER A   2      23.656  -8.376  20.572  0.00  0.00    -0.273 OA
ATOM     16  N   VAL A   3      25.159  -7.029  19.562  0.00  0.00    -0.298 N 
ATOM     17  H   VAL A   3      25.757  -6.183  19.652  0.00  0.00    +0.150 HD
BRANCH  16  18
ATOM     18  CA  VAL A   3      25.015  -7.675  18.265  0.00  0.00    +0.137 C 
BRANCH  18  19
ATOM     19  CB  VAL A   3      25.612  -6.839  17.099  0.00  0.00    +0.026 C 
ATOM     20  CG2 VAL A   3      27.110  -6.610  17.286  0.00  0.00    +0.002 C 
ATOM     21  CG1 VAL A   3      24.861  -5.520  16.937  0.00  0.00    +0.002 C 
ENDBRANCH  18  19
BRANCH  18  22
ATOM     22  C   VAL A   3      25.684  -9.047  18.325  0.00  0.00    +0.227 C 
ATOM     23  O   VAL A   3      26.582  -9.269  19.135  0.00  0.00    -0.286 OA
ENDBRANCH  18  22
ENDBRANCH  16  18
ENDBRANCH   1  14
BRANCH   1  24
ATOM     24  CB  SER A   2      26.022  -7.802  22.608  0.00  0.00    +0.166 C 
BRANCH  24  25
ATOM     25  OG  SER A   2      27.120  -7.984  21.724  0.00  0.00    -0.380 OA
ATOM     26  H   SER A   2      26.805  -8.421  20.894  0.00  0.00    +0.211 HD
ENDBRANCH  24  25
ENDBRANCH   1  24
TORSDOF 12
REMARK  Name = ../refined-set-2016/2zym/2zym_pocket.pdb
REMARK  261 active torsions:
REMARK  status: ('A' for Active; 'I' for Inactive)
REMARK    1  A    between atoms: _1  and  _3
REMARK    2  A    between atoms: _3  and  _4
REMARK    3  A    between atoms: _3  and  _6
REMARK    4  A    between atoms: _6  and  _7
REMARK    5  A    between atoms: _7  and  _8
REMARK    6  A    between atoms: _11  and  _13
REMARK    7  A    between atoms: _13  and  _14
REMARK    8  A    between atoms: _13  and  _16
REMARK    9  A    between atoms: _16  and  _17
REMARK   10  A    between atoms: _22  and  _24
REMARK   11  A    between atoms: _24  and  _25
REMARK   12  A    between atoms: _28  and  _30
REMARK   13  A    between atoms: _30  and  _31
REMARK   14  A    between atoms: _30  and  _33
REMARK   15  A    between atoms: _33  and  _34
REMARK   16  A    between atoms: _37  and  _39
REMARK   17  A    between atoms: _39  and  _40
REMARK   18  A    between atoms: _39  and  _42
REMARK   19  A    between atoms: _42  and  _43
REMARK   20  A    between atoms: _43  and  _44
REMARK   21  A    between atoms: _49  and  _51
REMARK   22  A    between atoms: _51  and  _52
REMARK   23  A    between atoms: _51  and  _54
REMARK   24  A    between atoms: _57  and  _59
REMARK   25  A    between atoms: _59  and  _60
REMARK   26  A    between atoms: _63  and  _65
REMARK   27  A    between atoms: _65  and  _66
REMARK   28  A    between atoms: _65  and  _68
REMARK   29  A    between atoms: _68  and  _69
REMARK   30  A    between atoms: _72  and  _74
REMARK   31  A    between atoms: _74  and  _75
REMARK   32  A    between atoms: _74  and  _77
REMARK   33  A    between atoms: _77  and  _78
REMARK   34  A    between atoms: _81  and  _83
REMARK   35  A    between atoms: _83  and  _84
REMARK   36  A    between atoms: _83  and  _86
REMARK   37  A    between atoms: _86  and  _87
REMARK   38  A    between atoms: _87  and  _88
REMARK   39  A    between atoms: _88  and  _89
REMARK   40  A    between atoms: _89  and  _90
REMARK   41  A    between atoms: _94  and  _96
REMARK   42  A    between atoms: _96  and  _97
REMARK   43  A    between atoms: _96  and  _99
REMARK   44  A    between atoms: _99  and  _100
REMARK   45  A    between atoms: _100  and  _101
REMARK   46  A    between atoms: _106  and  _108
REMARK   47  A    between atoms: _108  and  _109
REMARK   48  A    between atoms: _108  and  _111
REMARK   49  A    between atoms: _111  and  _112
REMARK   50  A    between atoms: _112  and  _113
REMARK   51  A    between atoms: _118  and  _120
REMARK   52  A    between atoms: _120  and  _121
REMARK   53  A    between atoms: _120  and  _123
REMARK   54  A    between atoms: _123  and  _124
REMARK   55  A    between atoms: _124  and  _125
REMARK   56  A    between atoms: _128  and  _130
REMARK   57  A    between atoms: _130  and  _131
REMARK   58  A    between atoms: _130  and  _133
REMARK   59  A    between atoms: _133  and  _134
REMARK   60  A    between atoms: _134  and  _135
REMARK   61  A    between atoms: _135  and  _136
REMARK   62  A    between atoms: _136  and  _137
REMARK   63  A    between atoms: _141  and  _143
REMARK   64  A    between atoms: _143  and  _144
REMARK   65  A    between atoms: _143  and  _146
REMARK   66  A    between atoms: _146  and  _147
REMARK   67  A    between atoms: _150  and  _152
REMARK   68  A    between atoms: _152  and  _153
REMARK   69  A    between atoms: _152  and  _155
REMARK   70  A    between atoms: _155  and  _156
REMARK   71  A    between atoms: _167  and  _168
REMARK   72  A    between atoms: _173  and  _175
REMARK   73  A    between atoms: _175  and  _176
REMARK   74  A    between atoms: _175  and  _178
REMARK   75  A    between atoms: _178  and  _179
REMARK   76  A    between atoms: _184  and  _186
REMARK   77  A    between atoms: _186  and  _187
REMARK   78  A    between atoms: _186  and  _189
REMARK   79  A    between atoms: _189  and  _190
REMARK   80  A    between atoms: _193  and  _195
REMARK   81  A    between atoms: _195  and  _196
REMARK   82  A    between atoms: _195  and  _198
REMARK   83  A    between atoms: _198  and  _199
REMARK   84  A    between atoms: _199  and  _200
REMARK   85  A    between atoms: _200  and  _201
REMARK   86  A    between atoms: _210  and  _212
REMARK   87  A    between atoms: _212  and  _213
REMARK   88  A    between atoms: _212  and  _215
REMARK   89  A    between atoms: _215  and  _216
REMARK   90  A    between atoms: _219  and  _221
REMARK   91  A    between atoms: _221  and  _222
REMARK   92  A    between atoms: _221  and  _224
REMARK   93  A    between atoms: _224  and  _225
REMARK   94  A    between atoms: _225  and  _226
REMARK   95  A    between atoms: _229  and  _231
REMARK   96  A    between atoms: _231  and  _232
REMARK   97  A    between atoms: _231  and  _234
REMARK   98  A    between atoms: _234  and  _235
REMARK   99  A    between atoms: _235  and  _236
REMARK  100  A    between atoms: _236  and  _237
REMARK  101  A    between atoms: _237  and  _238
REMARK  102  A    between atoms: _242  and  _244
REMARK  103  A    between atoms: _244  and  _245
REMARK  104  A    between atoms: _248  and  _250
REMARK  105  A    between atoms: _250  and  _251
REMARK  106  A    between atoms: _250  and  _253
REMARK  107  A    between atoms: _253  and  _254
REMARK  108  A    between atoms: _254  and  _255
REMARK  109  A    between atoms: _258  and  _260
REMARK  110  A    between atoms: _260  and  _261
REMARK  111  A    between atoms: _260  and  _263
REMARK  112  A    between atoms: _263  and  _264
REMARK  113  A    between atoms: _266  and  _268
REMARK  114  A    between atoms: _268  and  _269
REMARK  115  A    between atoms: _268  and  _271
REMARK  116  A    between atoms: _274  and  _276
REMARK  117  A    between atoms: _276  and  _277
REMARK  118  A    between atoms: _276  and  _279
REMARK  119  A    between atoms: _279  and  _280
REMARK  120  A    between atoms: _280  and  _281
REMARK  121  A    between atoms: _284  and  _286
REMARK  122  A    between atoms: _286  and  _287
REMARK  123  A    between atoms: _286  and  _289
REMARK  124  A    between atoms: _289  and  _290
REMARK  125  A    between atoms: _295  and  _297
REMARK  126  A    between atoms: _297  and  _298
REMARK  127  A    between atoms: _297  and  _300
REMARK  128  A    between atoms: _300  and  _301
REMARK  129  A    between atoms: _306  and  _308
REMARK  130  A    between atoms: _308  and  _309
REMARK  131  A    between atoms: _308  and  _311
REMARK  132  A    between atoms: _311  and  _312
REMARK  133  A    between atoms: _318  and  _320
REMARK  134  A    between atoms: _320  and  _321
REMARK  135  A    between atoms: _320  and  _323
REMARK  136  A    between atoms: _323  and  _324
REMARK  137  A    between atoms: _329  and  _330
REMARK  138  A    between atoms: _332  and  _334
REMARK  139  A    between atoms: _334  and  _335
REMARK  140  A    between atoms: _334  and  _337
REMARK  141  A    between atoms: _337  and  _338
REMARK  142  A    between atoms: _343  and  _344
REMARK  143  A    between atoms: _346  and  _348
REMARK  144  A    between atoms: _348  and  _349
REMARK  145  A    between atoms: _348  and  _351
REMARK  146  A    between atoms: _351  and  _352
REMARK  147  A    between atoms: _355  and  _357
REMARK  148  A    between atoms: _357  and  _358
REMARK  149  A    between atoms: _357  and  _360
REMARK  150  A    between atoms: _360  and  _361
REMARK  151  A    between atoms: _364  and  _366
REMARK  152  A    between atoms: _366  and  _367
REMARK  153  A    between atoms: _366  and  _369
REMARK  154  A    between atoms: _369  and  _370
REMARK  155  A    between atoms: _370  and  _371
REMARK  156  A    between atoms: _371  and  _372
REMARK  157  A    between atoms: _372  and  _373
REMARK  158  A    between atoms: _377  and  _379
REMARK  159  A    between atoms: _379  and  _380
REMARK  160  A    between atoms: _383  and  _385
REMARK  161  A    between atoms: _385  and  _386
REMARK  162  A    between atoms: _385  and  _388
REMARK  163  A    between atoms: _388  and  _389
REMARK  164  A    between atoms: _392  and  _394
REMARK  165  A    between atoms: _394  and  _395
REMARK  166  A    between atoms: _394  and  _397
REMARK  167  A    between atoms: _397  and  _398
REMARK  168  A    between atoms: _401  and  _403
REMARK  169  A    between atoms: _403  and  _404
REMARK  170  A    between atoms: _403  and  _406
REMARK  171  A    between atoms: _409  and  _411
REMARK  172  A    between atoms: _411  and  _412
REMARK  173  A    between atoms: _411  and  _414
REMARK  174  A    between atoms: _414  and  _415
REMARK  175  A    between atoms: _420  and  _422
REMARK  176  A    between atoms: _422  and  _423
REMARK  177  A    between atoms: _422  and  _425
REMARK  178  A    between atoms: _425  and  _426
REMARK  179  A    between atoms: _431  and  _433
REMARK  180  A    between atoms: _433  and  _434
REMARK  181  A    between atoms: _437  and  _438
REMARK  182  A    between atoms: _443  and  _445
REMARK  183  A    between atoms: _445  and  _446
REMARK  184  A    between atoms: _445  and  _448
REMARK  185  A    between atoms: _448  and  _449
REMARK  186  A    between atoms: _459  and  _461
REMARK  187  A    between atoms: _461  and  _462
REMARK  188  A    between atoms: _465  and  _467
REMARK  189  A    between atoms: _467  and  _468
REMARK  190  A    between atoms: _467  and  _470
REMARK  191  A    between atoms: _470  and  _471
REMARK  192  A    between atoms: _476  and  _477
REMARK  193  A    between atoms: _479  and  _481
REMARK  194  A    between atoms: _481  and  _482
REMARK  195  A    between atoms: _481  and  _484
REMARK  196  A    between atoms: _484  and  _485
REMARK  197  A    between atoms: _491  and  _493
REMARK  198  A    between atoms: _493  and  _494
REMARK  199  A    between atoms: _493  and  _496
REMARK  200  A    between atoms: _496  and  _497
REMARK  201  A    between atoms: _500  and  _502
REMARK  202  A    between atoms: _502  and  _503
REMARK  203  A    between atoms: _505  and  _507
REMARK  204  A    between atoms: _507  and  _508
REMARK  205  A    between atoms: _507  and  _510
REMARK  206  A    between atoms: _513  and  _515
REMARK  207  A    between atoms: _515  and  _516
REMARK  208  A    between atoms: _515  and  _518
REMARK  209  A    between atoms: _518  and  _519
REMARK  210  A    between atoms: _519  and  _520
REMARK  211  A    between atoms: _520  and  _521
REMARK  212  A    between atoms: _521  and  _522
REMARK  213  A    between atoms: _526  and  _528
REMARK  214  A    between atoms: _528  and  _529
REMARK  215  A    between atoms: _528  and  _531
REMARK  216  A    between atoms: _531  and  _532
REMARK  217  A    between atoms: _532  and  _533
REMARK  218  A    between atoms: _533  and  _534
REMARK  219  A    between atoms: _543  and  _545
REMARK  220  A    between atoms: _545  and  _546
REMARK  221  A    between atoms: _545  and  _548
REMARK  222  A    between atoms: _548  and  _549
REMARK  223  A    between atoms: _549  and  _550
REMARK  224  A    between atoms: _553  and  _555
REMARK  225  A    between atoms: _555  and  _556
REMARK  226  A    between atoms: _555  and  _558
REMARK  227  A    between atoms: _558  and  _559
REMARK  228  A    between atoms: _559  and  _560
REMARK  229  A    between atoms: _563  and  _564
REMARK  230  A    between atoms: _569  and  _571
REMARK  231  A    between atoms: _571  and  _572
REMARK  232  A    between atoms: _571  and  _574
REMARK  233  A    between atoms: _574  and  _575
REMARK  234  A    between atoms: _575  and  _576
REMARK  235  A    between atoms: _578  and  _580
REMARK  236  A    between atoms: _580  and  _581
REMARK  237  A    between atoms: _583  and  _585
REMARK  238  A    between atoms: _585  and  _586
REMARK  239  A    between atoms: _585  and  _588
REMARK  240  A    between atoms: _591  and  _593
REMARK  241  A    between atoms: _593  and  _594
REMARK  242  A    between atoms: _593  and  _596
REMARK  243  A    between atoms: _596  and  _597
REMARK  244  A    between atoms: _607  and  _609
REMARK  245  A    between atoms: _609  and  _610
REMARK  246  A    between atoms: _609  and  _612
REMARK  247  A    between atoms: _612  and  _613
REMARK  248  A    between atoms: _613  and  _614
REMARK  249  A    between atoms: _618  and  _619
REMARK  250  A    between atoms: _624  and  _626
REMARK  251  A    between atoms: _626  and  _627
REMARK  252  A    between atoms: _626  and  _629
REMARK  253  A    between atoms: _629  and  _630
REMARK  254  A    between atoms: _633  and  _635
REMARK  255  A    between atoms: _635  and  _636
REMARK  256  A    between atoms: _635  and  _638
REMARK  257  A    between atoms: _638  and  _639
REMARK  258  A    between atoms: _644  and  _646
REMARK  259  A    between atoms: _646  and  _647
REMARK  260  A    between atoms: _646  and  _649
REMARK  261  A    between atoms: _649  and  _650
REMARK                            x       y       z     vdW  Elec       q    Type
REMARK                         _______ _______ _______ _____ _____    ______ ____
ROOT
ATOM      1  CA  GLU A   1      25.626  -2.111   8.551  0.00  0.00    +0.134 C 
ENDROOT
BRANCH   1   2
ATOM      2  N   GLU A   1      25.389  -3.551   8.689  0.00  0.00    -0.239 NA
ATOM      3  H   GLU A   1      24.940  -3.906   9.557  0.00  0.00    +0.142 HD
ENDBRANCH   1   2
BRANCH   1   4
ATOM      4  C   GLU A   1      27.107  -1.784   8.726  0.00  0.00    +0.224 C 
ATOM      5  O   GLU A   1      27.521  -1.258   9.767  0.00  0.00    -0.287 OA
ENDBRANCH   1   4
BRANCH   1   6
ATOM      6  CB  GLU A   1      24.797  -1.321   9.565  0.00  0.00    +0.037 C 
BRANCH   6   7
ATOM      7  CG  GLU A   1      23.292  -1.337   9.334  0.00  0.00    +0.116 C 
BRANCH   7   8
ATOM      8  CD  GLU A   1      22.543  -0.460  10.325  0.00  0.00    +0.365 C 
ATOM      9  OE2 GLU A   1      21.528  -0.927  10.877  0.00  0.00    -0.246 OA
ATOM     10  OE1 GLU A   1      22.965   0.697  10.556  0.00  0.00    -0.246 OA
ENDBRANCH   7   8
ENDBRANCH   6   7
ENDBRANCH   1   6
TORSDOF 5
REMARK  Name = ../refined-set-2016/2zym/2zym_pocket.pdb
REMARK  261 active torsions:
REMARK  status: ('A' for Active; 'I' for Inactive)
REMARK    1  A    between atoms: _1  and  _3
REMARK    2  A    between atoms: _3  and  _4
REMARK    3  A    between atoms: _3  and  _6
REMARK    4  A    between atoms: _6  and  _7
REMARK    5  A    between atoms: _7  and  _8
REMARK    6  A    between atoms: _11  and  _13
REMARK    7  A    between atoms: _13  and  _14
REMARK    8  A    between atoms: _13  and  _16
REMARK    9  A    between atoms: _16  and  _17
REMARK   10  A    between atoms: _22  and  _24
REMARK   11  A    between atoms: _24  and  _25
REMARK   12  A    between atoms: _28  and  _30
REMARK   13  A    between atoms: _30  and  _31
REMARK   14  A    between atoms: _30  and  _33
REMARK   15  A    between atoms: _33  and  _34
REMARK   16  A    between atoms: _37  and  _39
REMARK   17  A    between atoms: _39  and  _40
REMARK   18  A    between atoms: _39  and  _42
REMARK   19  A    between atoms: _42  and  _43
REMARK   20  A    between atoms: _43  and  _44
REMARK   21  A    between atoms: _49  and  _51
REMARK   22  A    between atoms: _51  and  _52
REMARK   23  A    between atoms: _51  and  _54
REMARK   24  A    between atoms: _57  and  _59
REMARK   25  A    between atoms: _59  and  _60
REMARK   26  A    between atoms: _63  and  _65
REMARK   27  A    between atoms: _65  and  _66
REMARK   28  A    between atoms: _65  and  _68
REMARK   29  A    between atoms: _68  and  _69
REMARK   30  A    between atoms: _72  and  _74
REMARK   31  A    between atoms: _74  and  _75
REMARK   32  A    between atoms: _74  and  _77
REMARK   33  A    between atoms: _77  and  _78
REMARK   34  A    between atoms: _81  and  _83
REMARK   35  A    between atoms: _83  and  _84
REMARK   36  A    between atoms: _83  and  _86
REMARK   37  A    between atoms: _86  and  _87
REMARK   38  A    between atoms: _87  and  _88
REMARK   39  A    between atoms: _88  and  _89
REMARK   40  A    between atoms: _89  and  _90
REMARK   41  A    between atoms: _94  and  _96
REMARK   42  A    between atoms: _96  and  _97
REMARK   43  A    between atoms: _96  and  _99
REMARK   44  A    between atoms: _99  and  _100
REMARK   45  A    between atoms: _100  and  _101
REMARK   46  A    between atoms: _106  and  _108
REMARK   47  A    between atoms: _108  and  _109
REMARK   48  A    between atoms: _108  and  _111
REMARK   49  A    between atoms: _111  and  _112
REMARK   50  A    between atoms: _112  and  _113
REMARK   51  A    between atoms: _118  and  _120
REMARK   52  A    between atoms: _120  and  _121
REMARK   53  A    between atoms: _120  and  _123
REMARK   54  A    between atoms: _123  and  _124
REMARK   55  A    between atoms: _124  and  _125
REMARK   56  A    between atoms: _128  and  _130
REMARK   57  A    between atoms: _130  and  _131
REMARK   58  A    between atoms: _130  and  _133
REMARK   59  A    between atoms: _133  and  _134
REMARK   60  A    between atoms: _134  and  _135
REMARK   61  A    between atoms: _135  and  _136
REMARK   62  A    between atoms: _136  and  _137
REMARK   63  A    between atoms: _141  and  _143
REMARK   64  A    between atoms: _143  and  _144
REMARK   65  A    between atoms: _143  and  _146
REMARK   66  A    between atoms: _146  and  _147
REMARK   67  A    between atoms: _150  and  _152
REMARK   68  A    between atoms: _152  and  _153
REMARK   69  A    between atoms: _152  and  _155
REMARK   70  A    between atoms: _155  and  _156
REMARK   71  A    between atoms: _167  and  _168
REMARK   72  A    between atoms: _173  and  _175
REMARK   73  A    between atoms: _175  and  _176
REMARK   74  A    between atoms: _175  and  _178
REMARK   75  A    between atoms: _178  and  _179
REMARK   76  A    between atoms: _184  and  _186
REMARK   77  A    between atoms: _186  and  _187
REMARK   78  A    between atoms: _186  and  _189
REMARK   79  A    between atoms: _189  and  _190
REMARK   80  A    between atoms: _193  and  _195
REMARK   81  A    between atoms: _195  and  _196
REMARK   82  A    between atoms: _195  and  _198
REMARK   83  A    between atoms: _198  and  _199
REMARK   84  A    between atoms: _199  and  _200
REMARK   85  A    between atoms: _200  and  _201
REMARK   86  A    between atoms: _210  and  _212
REMARK   87  A    between atoms: _212  and  _213
REMARK   88  A    between atoms: _212  and  _215
REMARK   89  A    between atoms: _215  and  _216
REMARK   90  A    between atoms: _219  and  _221
REMARK   91  A    between atoms: _221  and  _222
REMARK   92  A    between atoms: _221  and  _224
REMARK   93  A    between atoms: _224  and  _225
REMARK   94  A    between atoms: _225  and  _226
REMARK   95  A    between atoms: _229  and  _231
REMARK   96  A    between atoms: _231  and  _232
REMARK   97  A    between atoms: _231  and  _234
REMARK   98  A    between atoms: _234  and  _235
REMARK   99  A    between atoms: _235  and  _236
REMARK  100  A    between atoms: _236  and  _237
REMARK  101  A    between atoms: _237  and  _238
REMARK  102  A    between atoms: _242  and  _244
REMARK  103  A    between atoms: _244  and  _245
REMARK  104  A    between atoms: _248  and  _250
REMARK  105  A    between atoms: _250  and  _251
REMARK  106  A    between atoms: _250  and  _253
REMARK  107  A    between atoms: _253  and  _254
REMARK  108  A    between atoms: _254  and  _255
REMARK  109  A    between atoms: _258  and  _260
REMARK  110  A    between atoms: _260  and  _261
REMARK  111  A    between atoms: _260  and  _263
REMARK  112  A    between atoms: _263  and  _264
REMARK  113  A    between atoms: _266  and  _268
REMARK  114  A    between atoms: _268  and  _269
REMARK  115  A    between atoms: _268  and  _271
REMARK  116  A    between atoms: _274  and  _276
REMARK  117  A    between atoms: _276  and  _277
REMARK  118  A    between atoms: _276  and  _279
REMARK  119  A    between atoms: _279  and  _280
REMARK  120  A    between atoms: _280  and  _281
REMARK  121  A    between atoms: _284  and  _286
REMARK  122  A    between atoms: _286  and  _287
REMARK  123  A    between atoms: _286  and  _289
REMARK  124  A    between atoms: _289  and  _290
REMARK  125  A    between atoms: _295  and  _297
REMARK  126  A    between atoms: _297  and  _298
REMARK  127  A    between atoms: _297  and  _300
REMARK  128  A    between atoms: _300  and  _301
REMARK  129  A    between atoms: _306  and  _308
REMARK  130  A    between atoms: _308  and  _309
REMARK  131  A    between atoms: _308  and  _311
REMARK  132  A    between atoms: _311  and  _312
REMARK  133  A    between atoms: _318  and  _320
REMARK  134  A    between atoms: _320  and  _321
REMARK  135  A    between atoms: _320  and  _323
REMARK  136  A    between atoms: _323  and  _324
REMARK  137  A    between atoms: _329  and  _330
REMARK  138  A    between atoms: _332  and  _334
REMARK  139  A    between atoms: _334  and  _335
REMARK  140  A    between atoms: _334  and  _337
REMARK  141  A    between atoms: _337  and  _338
REMARK  142  A    between atoms: _343  and  _344
REMARK  143  A    between atoms: _346  and  _348
REMARK  144  A    between atoms: _348  and  _349
REMARK  145  A    between atoms: _348  and  _351
REMARK  146  A    between atoms: _351  and  _352
REMARK  147  A    between atoms: _355  and  _357
REMARK  148  A    between atoms: _357  and  _358
REMARK  149  A    between atoms: _357  and  _360
REMARK  150  A    between atoms: _360  and  _361
REMARK  151  A    between atoms: _364  and  _366
REMARK  152  A    between atoms: _366  and  _367
REMARK  153  A    between atoms: _366  and  _369
REMARK  154  A    between atoms: _369  and  _370
REMARK  155  A    between atoms: _370  and  _371
REMARK  156  A    between atoms: _371  and  _372
REMARK  157  A    between atoms: _372  and  _373
REMARK  158  A    between atoms: _377  and  _379
REMARK  159  A    between atoms: _379  and  _380
REMARK  160  A    between atoms: _383  and  _385
REMARK  161  A    between atoms: _385  and  _386
REMARK  162  A    between atoms: _385  and  _388
REMARK  163  A    between atoms: _388  and  _389
REMARK  164  A    between atoms: _392  and  _394
REMARK  165  A    between atoms: _394  and  _395
REMARK  166  A    between atoms: _394  and  _397
REMARK  167  A    between atoms: _397  and  _398
REMARK  168  A    between atoms: _401  and  _403
REMARK  169  A    between atoms: _403  and  _404
REMARK  170  A    between atoms: _403  and  _406
REMARK  171  A    between atoms: _409  and  _411
REMARK  172  A    between atoms: _411  and  _412
REMARK  173  A    between atoms: _411  and  _414
REMARK  174  A    between atoms: _414  and  _415
REMARK  175  A    between atoms: _420  and  _422
REMARK  176  A    between atoms: _422  and  _423
REMARK  177  A    between atoms: _422  and  _425
REMARK  178  A    between atoms: _425  and  _426
REMARK  179  A    between atoms: _431  and  _433
REMARK  180  A    between atoms: _433  and  _434
REMARK  181  A    between atoms: _437  and  _438
REMARK  182  A    between atoms: _443  and  _445
REMARK  183  A    between atoms: _445  and  _446
REMARK  184  A    between atoms: _445  and  _448
REMARK  185  A    between atoms: _448  and  _449
REMARK  186  A    between atoms: _459  and  _461
REMARK  187  A    between atoms: _461  and  _462
REMARK  188  A    between atoms: _465  and  _467
REMARK  189  A    between atoms: _467  and  _468
REMARK  190  A    between atoms: _467  and  _470
REMARK  191  A    between atoms: _470  and  _471
REMARK  192  A    between atoms: _476  and  _477
REMARK  193  A    between atoms: _479  and  _481
REMARK  194  A    between atoms: _481  and  _482
REMARK  195  A    between atoms: _481  and  _484
REMARK  196  A    between atoms: _484  and  _485
REMARK  197  A    between atoms: _491  and  _493
REMARK  198  A    between atoms: _493  and  _494
REMARK  199  A    between atoms: _493  and  _496
REMARK  200  A    between atoms: _496  and  _497
REMARK  201  A    between atoms: _500  and  _502
REMARK  202  A    between atoms: _502  and  _503
REMARK  203  A    between atoms: _505  and  _507
REMARK  204  A    between atoms: _507  and  _508
REMARK  205  A    between atoms: _507  and  _510
REMARK  206  A    between atoms: _513  and  _515
REMARK  207  A    between atoms: _515  and  _516
REMARK  208  A    between atoms: _515  and  _518
REMARK  209  A    between atoms: _518  and  _519
REMARK  210  A    between atoms: _519  and  _520
REMARK  211  A    between atoms: _520  and  _521
REMARK  212  A    between atoms: _521  and  _522
REMARK  213  A    between atoms: _526  and  _528
REMARK  214  A    between atoms: _528  and  _529
REMARK  215  A    between atoms: _528  and  _531
REMARK  216  A    between atoms: _531  and  _532
REMARK  217  A    between atoms: _532  and  _533
REMARK  218  A    between atoms: _533  and  _534
REMARK  219  A    between atoms: _543  and  _545
REMARK  220  A    between atoms: _545  and  _546
REMARK  221  A    between atoms: _545  and  _548
REMARK  222  A    between atoms: _548  and  _549
REMARK  223  A    between atoms: _549  and  _550
REMARK  224  A    between atoms: _553  and  _555
REMARK  225  A    between atoms: _555  and  _556
REMARK  226  A    between atoms: _555  and  _558
REMARK  227  A    between atoms: _558  and  _559
REMARK  228  A    between atoms: _559  and  _560
REMARK  229  A    between atoms: _563  and  _564
REMARK  230  A    between atoms: _569  and  _571
REMARK  231  A    between atoms: _571  and  _572
REMARK  232  A    between atoms: _571  and  _574
REMARK  233  A    between atoms: _574  and  _575
REMARK  234  A    between atoms: _575  and  _576
REMARK  235  A    between atoms: _578  and  _580
REMARK  236  A    between atoms: _580  and  _581
REMARK  237  A    between atoms: _583  and  _585
REMARK  238  A    between atoms: _585  and  _586
REMARK  239  A    between atoms: _585  and  _588
REMARK  240  A    between atoms: _591  and  _593
REMARK  241  A    between atoms: _593  and  _594
REMARK  242  A    between atoms: _593  and  _596
REMARK  243  A    between atoms: _596  and  _597
REMARK  244  A    between atoms: _607  and  _609
REMARK  245  A    between atoms: _609  and  _610
REMARK  246  A    between atoms: _609  and  _612
REMARK  247  A    between atoms: _612  and  _613
REMARK  248  A    between atoms: _613  and  _614
REMARK  249  A    between atoms: _618  and  _619
REMARK  250  A    between atoms: _624  and  _626
REMARK  251  A    between atoms: _626  and  _627
REMARK  252  A    between atoms: _626  and  _629
REMARK  253  A    between atoms: _629  and  _630
REMARK  254  A    between atoms: _633  and  _635
REMARK  255  A    between atoms: _635  and  _636
REMARK  256  A    between atoms: _635  and  _638
REMARK  257  A    between atoms: _638  and  _639
REMARK  258  A    between atoms: _644  and  _646
REMARK  259  A    between atoms: _646  and  _647
REMARK  260  A    between atoms: _646  and  _649
REMARK  261  A    between atoms: _649  and  _650
REMARK                            x       y       z     vdW  Elec       q    Type
REMARK                         _______ _______ _______ _____ _____    ______ ____
ROOT
ATOM      1  C   PHE A   3      30.118   1.300  14.968  0.00  0.00    +0.241 C 
ATOM      2  O   PHE A   3      30.879   0.508  15.535  0.00  0.00    -0.273 OA
ATOM      3  N   TYR A   4      28.844   1.451  15.320  0.00  0.00    -0.297 N 
ATOM      4  H   TYR A   4      28.269   2.186  14.860  0.00  0.00    +0.150 HD
ENDROOT
BRANCH   3   5
ATOM      5  CA  TYR A   4      28.241   0.602  16.341  0.00  0.00    +0.153 C 
BRANCH   5   6
ATOM      6  C   TYR A   4      28.432  -0.873  15.988  0.00  0.00    +0.241 C 
ATOM      7  O   TYR A   4      28.728  -1.693  16.855  0.00  0.00    -0.273 OA
ATOM      8  N   TYR A   5      28.269  -1.190  14.706  0.00  0.00    -0.297 N 
ATOM      9  H   TYR A   5      28.066  -0.430  14.026  0.00  0.00    +0.150 HD
BRANCH   8  10
ATOM     10  CA  TYR A   5      28.364  -2.562  14.216  0.00  0.00    +0.153 C 
BRANCH  10  11
ATOM     11  C   TYR A   5      29.789  -3.006  13.920  0.00  0.00    +0.241 C 
ATOM     12  O   TYR A   5      30.128  -4.173  14.110  0.00  0.00    -0.273 OA
ATOM     13  N   THR A   6      30.609  -2.071  13.445  0.00  0.00    -0.296 N 
ATOM     14  H   THR A   6      30.270  -1.089  13.391  0.00  0.00    +0.150 HD
BRANCH  13  15
ATOM     15  CA  THR A   6      31.970  -2.373  12.996  0.00  0.00    +0.164 C 
BRANCH  15  16
ATOM     16  C   THR A   6      32.975  -2.356  14.141  0.00  0.00    +0.229 C 
ATOM     17  O   THR A   6      34.132  -2.736  13.954  0.00  0.00    -0.286 OA
ENDBRANCH  15  16
BRANCH  15  18
ATOM     18  CB  THR A   6      32.450  -1.367  11.936  0.00  0.00    +0.136 C 
ATOM     19  CG2 THR A   6      31.568  -1.417  10.700  0.00  0.00    +0.034 C 
BRANCH  18  20
ATOM     20  OG1 THR A   6      32.414  -0.049  12.490  0.00  0.00    -0.382 OA
ATOM     21  HG1 THR A   6      31.487   0.169  12.760  0.00  0.00    +0.210 HD
ENDBRANCH  18  20
ENDBRANCH  15  18
ENDBRANCH  13  15
ENDBRANCH  10  11
BRANCH  10  22
ATOM     22  CB  TYR A   5      27.516  -2.721  12.955  0.00  0.00    +0.055 C 
BRANCH  22  23
ATOM     23  CG  TYR A   5      26.034  -2.713  13.235  0.00  0.00    -0.020 A 
ATOM     24  CD2 TYR A   5      25.350  -3.903  13.467  0.00  0.00    -0.001 A 
ATOM     25  CE2 TYR A   5      23.988  -3.906  13.730  0.00  0.00    +0.036 A 
ATOM     26  CZ  TYR A   5      23.298  -2.705  13.762  0.00  0.00    +0.134 A 
ATOM     27  CE1 TYR A   5      23.954  -1.508  13.540  0.00  0.00    +0.036 A 
ATOM     28  CD1 TYR A   5      25.319  -1.518  13.277  0.00  0.00    -0.001 A 
BRANCH  26  29
ATOM     29  OH  TYR A   5      21.950  -2.707  14.020  0.00  0.00    -0.506 OA
ATOM     30  HH  TYR A   5      21.483  -3.239  13.327  0.00  0.00    +0.292 HD
ENDBRANCH  26  29
ENDBRANCH  22  23
ENDBRANCH  10  22
ENDBRANCH   8  10
ENDBRANCH   5   6
BRANCH   5  31
ATOM     31  CB  TYR A   4      26.749   0.914  16.521  0.00  0.00    +0.055 C 
BRANCH  31  32
ATOM     32  CG  TYR A   4      26.081  -0.024  17.503  0.00  0.00    -0.020 A 
ATOM     33  CD2 TYR A   4      26.266   0.129  18.877  0.00  0.00    -0.001 A 
ATOM     34  CE2 TYR A   4      25.674  -0.750  19.786  0.00  0.00    +0.036 A 
ATOM     35  CZ  TYR A   4      24.898  -1.792  19.311  0.00  0.00    +0.134 A 
ATOM     36  CE1 TYR A   4      24.709  -1.970  17.952  0.00  0.00    +0.036 A 
ATOM     37  CD1 TYR A   4      25.305  -1.093  17.055  0.00  0.00    -0.001 A 
BRANCH  35  38
ATOM     38  OH  TYR A   4      24.312  -2.661  20.196  0.00  0.00    -0.506 OA
ATOM     39  HH  TYR A   4      24.545  -2.395  21.121  0.00  0.00    +0.292 HD
ENDBRANCH  35  38
ENDBRANCH  31  32
ENDBRANCH   5  31
ENDBRANCH   3   5
BRANCH   1  40
ATOM     40  CA  PHE A   3      30.625   2.170  13.813  0.00  0.00    +0.153 C 
BRANCH  40  42
ATOM     41  C   ASN A   2      28.925   1.571  12.128  0.00  0.00    +0.241 C 
ATOM     42  N   PHE A   3      29.607   2.495  12.805  0.00  0.00    -0.297 N 
ATOM     43  H   PHE A   3      29.408   3.497  12.610  0.00  0.00    +0.150 HD
ATOM     44  O   ASN A   2      29.045   0.355  12.321  0.00  0.00    -0.273 OA
BRANCH  41  45
ATOM     45  CA  ASN A   2      27.954   2.097  11.077  0.00  0.00    +0.158 C 
BRANCH  45  47
ATOM     46  C   ASN A   1      28.616   2.509   8.748  0.00  0.00    +0.239 C 
ATOM     47  N   ASN A   2      28.377   1.662   9.747  0.00  0.00    -0.297 N 
ATOM     48  H   ASN A   2      28.497   0.644   9.573  0.00  0.00    +0.150 HD
ATOM     49  O   ASN A   1      28.593   3.734   8.882  0.00  0.00    -0.274 OA
BRANCH  46  50
ATOM     50  CA  ASN A   1      28.935   1.872   7.389  0.00  0.00    +0.154 C 
BRANCH  50  51
ATOM     51  N   ASN A   1      28.756   0.424   7.409  0.00  0.00    -0.238 NA
ATOM     52  H   ASN A   1      27.804   0.040   7.239  0.00  0.00    +0.142 HD
ENDBRANCH  50  51
BRANCH  50  53
ATOM     53  CB  ASN A   1      28.064   2.492   6.290  0.00  0.00    +0.111 C 
BRANCH  53  54
ATOM     54  CG  ASN A   1      26.579   2.239   6.502  0.00  0.00    +0.221 C 
ATOM     55  OD1 ASN A   1      26.184   1.302   7.203  0.00  0.00    -0.275 OA
ATOM     56  ND2 ASN A   1      25.747   3.082   5.900  0.00  0.00    -0.329 N 
ATOM     57 HD21 ASN A   1      24.719   2.966   6.010  0.00  0.00    +0.145 HD
ATOM     58 HD22 ASN A   1      26.123   3.858   5.318  0.00  0.00    +0.145 HD
ENDBRANCH  53  54
ENDBRANCH  50  53
ENDBRANCH  46  50
ENDBRANCH  45  47
BRANCH  45  59
ATOM     59  CB  ASN A   2      26.526   1.600  11.346  0.00  0.00    +0.114 C 
BRANCH  59  60
ATOM     60  CG  ASN A   2      25.907   2.177  12.626  0.00  0.00    +0.222 C 
ATOM     61  OD1 ASN A   2      26.600   2.618  13.544  0.00  0.00    -0.275 OA
ATOM     62  ND2 ASN A   2      24.581   2.153  12.684  0.00  0.00    -0.329 N 
ATOM     63 HD21 ASN A   2      24.091   2.515  13.527  0.00  0.00    +0.145 HD
ATOM     64 HD22 ASN A   2      24.032   1.772  11.887  0.00  0.00    +0.145 HD
ENDBRANCH  59  60
ENDBRANCH  45  59
ENDBRANCH  41  45
ENDBRANCH  40  42
BRANCH  40  65
ATOM     65  CB  PHE A   3      31.267   3.454  14.356  0.00  0.00    +0.055 C 
BRANCH  65  66
ATOM     66  CG  PHE A   3      32.365   3.215  15.362  0.00  0.00    -0.020 A 
ATOM     67  CD2 PHE A   3      32.277   3.751  16.642  0.00  0.00    -0.004 A 
ATOM     68  CE2 PHE A   3      33.293   3.541  17.577  0.00  0.00    -0.000 A 
ATOM     69  CZ  PHE A   3      34.413   2.788  17.228  0.00  0.00    -0.000 A 
ATOM     70  CE1 PHE A   3      34.517   2.253  15.949  0.00  0.00    -0.000 A 
ATOM     71  CD1 PHE A   3      33.496   2.471  15.021  0.00  0.00    -0.004 A 
ENDBRANCH  65  66
ENDBRANCH  40  65
ENDBRANCH   1  40
TORSDOF 26
REMARK  Name = ../refined-set-2016/2zym/2zym_pocket.pdb
REMARK  261 active torsions:
REMARK  status: ('A' for Active; 'I' for Inactive)
REMARK    1  A    between atoms: _1  and  _3
REMARK    2  A    between atoms: _3  and  _4
REMARK    3  A    between atoms: _3  and  _6
REMARK    4  A    between atoms: _6  and  _7
REMARK    5  A    between atoms: _7  and  _8
REMARK    6  A    between atoms: _11  and  _13
REMARK    7  A    between atoms: _13  and  _14
REMARK    8  A    between atoms: _13  and  _16
REMARK    9  A    between atoms: _16  and  _17
REMARK   10  A    between atoms: _22  and  _24
REMARK   11  A    between atoms: _24  and  _25
REMARK   12  A    between atoms: _28  and  _30
REMARK   13  A    between atoms: _30  and  _31
REMARK   14  A    between atoms: _30  and  _33
REMARK   15  A    between atoms: _33  and  _34
REMARK   16  A    between atoms: _37  and  _39
REMARK   17  A    between atoms: _39  and  _40
REMARK   18  A    between atoms: _39  and  _42
REMARK   19  A    between atoms: _42  and  _43
REMARK   20  A    between atoms: _43  and  _44
REMARK   21  A    between atoms: _49  and  _51
REMARK   22  A    between atoms: _51  and  _52
REMARK   23  A    between atoms: _51  and  _54
REMARK   24  A    between atoms: _57  and  _59
REMARK   25  A    between atoms: _59  and  _60
REMARK   26  A    between atoms: _63  and  _65
REMARK   27  A    between atoms: _65  and  _66
REMARK   28  A    between atoms: _65  and  _68
REMARK   29  A    between atoms: _68  and  _69
REMARK   30  A    between atoms: _72  and  _74
REMARK   31  A    between atoms: _74  and  _75
REMARK   32  A    between atoms: _74  and  _77
REMARK   33  A    between atoms: _77  and  _78
REMARK   34  A    between atoms: _81  and  _83
REMARK   35  A    between atoms: _83  and  _84
REMARK   36  A    between atoms: _83  and  _86
REMARK   37  A    between atoms: _86  and  _87
REMARK   38  A    between atoms: _87  and  _88
REMARK   39  A    between atoms: _88  and  _89
REMARK   40  A    between atoms: _89  and  _90
REMARK   41  A    between atoms: _94  and  _96
REMARK   42  A    between atoms: _96  and  _97
REMARK   43  A    between atoms: _96  and  _99
REMARK   44  A    between atoms: _99  and  _100
REMARK   45  A    between atoms: _100  and  _101
REMARK   46  A    between atoms: _106  and  _108
REMARK   47  A    between atoms: _108  and  _109
REMARK   48  A    between atoms: _108  and  _111
REMARK   49  A    between atoms: _111  and  _112
REMARK   50  A    between atoms: _112  and  _113
REMARK   51  A    between atoms: _118  and  _120
REMARK   52  A    between atoms: _120  and  _121
REMARK   53  A    between atoms: _120  and  _123
REMARK   54  A    between atoms: _123  and  _124
REMARK   55  A    between atoms: _124  and  _125
REMARK   56  A    between atoms: _128  and  _130
REMARK   57  A    between atoms: _130  and  _131
REMARK   58  A    between atoms: _130  and  _133
REMARK   59  A    between atoms: _133  and  _134
REMARK   60  A    between atoms: _134  and  _135
REMARK   61  A    between atoms: _135  and  _136
REMARK   62  A    between atoms: _136  and  _137
REMARK   63  A    between atoms: _141  and  _143
REMARK   64  A    between atoms: _143  and  _144
REMARK   65  A    between atoms: _143  and  _146
REMARK   66  A    between atoms: _146  and  _147
REMARK   67  A    between atoms: _150  and  _152
REMARK   68  A    between atoms: _152  and  _153
REMARK   69  A    between atoms: _152  and  _155
REMARK   70  A    between atoms: _155  and  _156
REMARK   71  A    between atoms: _167  and  _168
REMARK   72  A    between atoms: _173  and  _175
REMARK   73  A    between atoms: _175  and  _176
REMARK   74  A    between atoms: _175  and  _178
REMARK   75  A    between atoms: _178  and  _179
REMARK   76  A    between atoms: _184  and  _186
REMARK   77  A    between atoms: _186  and  _187
REMARK   78  A    between atoms: _186  and  _189
REMARK   79  A    between atoms: _189  and  _190
REMARK   80  A    between atoms: _193  and  _195
REMARK   81  A    between atoms: _195  and  _196
REMARK   82  A    between atoms: _195  and  _198
REMARK   83  A    between atoms: _198  and  _199
REMARK   84  A    between atoms: _199  and  _200
REMARK   85  A    between atoms: _200  and  _201
REMARK   86  A    between atoms: _210  and  _212
REMARK   87  A    between atoms: _212  and  _213
REMARK   88  A    between atoms: _212  and  _215
REMARK   89  A    between atoms: _215  and  _216
REMARK   90  A    between atoms: _219  and  _221
REMARK   91  A    between atoms: _221  and  _222
REMARK   92  A    between atoms: _221  and  _224
REMARK   93  A    between atoms: _224  and  _225
REMARK   94  A    between atoms: _225  and  _226
REMARK   95  A    between atoms: _229  and  _231
REMARK   96  A    between atoms: _231  and  _232
REMARK   97  A    between atoms: _231  and  _234
REMARK   98  A    between atoms: _234  and  _235
REMARK   99  A    between atoms: _235  and  _236
REMARK  100  A    between atoms: _236  and  _237
REMARK  101  A    between atoms: _237  and  _238
REMARK  102  A    between atoms: _242  and  _244
REMARK  103  A    between atoms: _244  and  _245
REMARK  104  A    between atoms: _248  and  _250
REMARK  105  A    between atoms: _250  and  _251
REMARK  106  A    between atoms: _250  and  _253
REMARK  107  A    between atoms: _253  and  _254
REMARK  108  A    between atoms: _254  and  _255
REMARK  109  A    between atoms: _258  and  _260
REMARK  110  A    between atoms: _260  and  _261
REMARK  111  A    between atoms: _260  and  _263
REMARK  112  A    between atoms: _263  and  _264
REMARK  113  A    between atoms: _266  and  _268
REMARK  114  A    between atoms: _268  and  _269
REMARK  115  A    between atoms: _268  and  _271
REMARK  116  A    between atoms: _274  and  _276
REMARK  117  A    between atoms: _276  and  _277
REMARK  118  A    between atoms: _276  and  _279
REMARK  119  A    between atoms: _279  and  _280
REMARK  120  A    between atoms: _280  and  _281
REMARK  121  A    between atoms: _284  and  _286
REMARK  122  A    between atoms: _286  and  _287
REMARK  123  A    between atoms: _286  and  _289
REMARK  124  A    between atoms: _289  and  _290
REMARK  125  A    between atoms: _295  and  _297
REMARK  126  A    between atoms: _297  and  _298
REMARK  127  A    between atoms: _297  and  _300
REMARK  128  A    between atoms: _300  and  _301
REMARK  129  A    between atoms: _306  and  _308
REMARK  130  A    between atoms: _308  and  _309
REMARK  131  A    between atoms: _308  and  _311
REMARK  132  A    between atoms: _311  and  _312
REMARK  133  A    between atoms: _318  and  _320
REMARK  134  A    between atoms: _320  and  _321
REMARK  135  A    between atoms: _320  and  _323
REMARK  136  A    between atoms: _323  and  _324
REMARK  137  A    between atoms: _329  and  _330
REMARK  138  A    between atoms: _332  and  _334
REMARK  139  A    between atoms: _334  and  _335
REMARK  140  A    between atoms: _334  and  _337
REMARK  141  A    between atoms: _337  and  _338
REMARK  142  A    between atoms: _343  and  _344
REMARK  143  A    between atoms: _346  and  _348
REMARK  144  A    between atoms: _348  and  _349
REMARK  145  A    between atoms: _348  and  _351
REMARK  146  A    between atoms: _351  and  _352
REMARK  147  A    between atoms: _355  and  _357
REMARK  148  A    between atoms: _357  and  _358
REMARK  149  A    between atoms: _357  and  _360
REMARK  150  A    between atoms: _360  and  _361
REMARK  151  A    between atoms: _364  and  _366
REMARK  152  A    between atoms: _366  and  _367
REMARK  153  A    between atoms: _366  and  _369
REMARK  154  A    between atoms: _369  and  _370
REMARK  155  A    between atoms: _370  and  _371
REMARK  156  A    between atoms: _371  and  _372
REMARK  157  A    between atoms: _372  and  _373
REMARK  158  A    between atoms: _377  and  _379
REMARK  159  A    between atoms: _379  and  _380
REMARK  160  A    between atoms: _383  and  _385
REMARK  161  A    between atoms: _385  and  _386
REMARK  162  A    between atoms: _385  and  _388
REMARK  163  A    between atoms: _388  and  _389
REMARK  164  A    between atoms: _392  and  _394
REMARK  165  A    between atoms: _394  and  _395
REMARK  166  A    between atoms: _394  and  _397
REMARK  167  A    between atoms: _397  and  _398
REMARK  168  A    between atoms: _401  and  _403
REMARK  169  A    between atoms: _403  and  _404
REMARK  170  A    between atoms: _403  and  _406
REMARK  171  A    between atoms: _409  and  _411
REMARK  172  A    between atoms: _411  and  _412
REMARK  173  A    between atoms: _411  and  _414
REMARK  174  A    between atoms: _414  and  _415
REMARK  175  A    between atoms: _420  and  _422
REMARK  176  A    between atoms: _422  and  _423
REMARK  177  A    between atoms: _422  and  _425
REMARK  178  A    between atoms: _425  and  _426
REMARK  179  A    between atoms: _431  and  _433
REMARK  180  A    between atoms: _433  and  _434
REMARK  181  A    between atoms: _437  and  _438
REMARK  182  A    between atoms: _443  and  _445
REMARK  183  A    between atoms: _445  and  _446
REMARK  184  A    between atoms: _445  and  _448
REMARK  185  A    between atoms: _448  and  _449
REMARK  186  A    between atoms: _459  and  _461
REMARK  187  A    between atoms: _461  and  _462
REMARK  188  A    between atoms: _465  and  _467
REMARK  189  A    between atoms: _467  and  _468
REMARK  190  A    between atoms: _467  and  _470
REMARK  191  A    between atoms: _470  and  _471
REMARK  192  A    between atoms: _476  and  _477
REMARK  193  A    between atoms: _479  and  _481
REMARK  194  A    between atoms: _481  and  _482
REMARK  195  A    between atoms: _481  and  _484
REMARK  196  A    between atoms: _484  and  _485
REMARK  197  A    between atoms: _491  and  _493
REMARK  198  A    between atoms: _493  and  _494
REMARK  199  A    between atoms: _493  and  _496
REMARK  200  A    between atoms: _496  and  _497
REMARK  201  A    between atoms: _500  and  _502
REMARK  202  A    between atoms: _502  and  _503
REMARK  203  A    between atoms: _505  and  _507
REMARK  204  A    between atoms: _507  and  _508
REMARK  205  A    between atoms: _507  and  _510
REMARK  206  A    between atoms: _513  and  _515
REMARK  207  A    between atoms: _515  and  _516
REMARK  208  A    between atoms: _515  and  _518
REMARK  209  A    between atoms: _518  and  _519
REMARK  210  A    between atoms: _519  and  _520
REMARK  211  A    between atoms: _520  and  _521
REMARK  212  A    between atoms: _521  and  _522
REMARK  213  A    between atoms: _526  and  _528
REMARK  214  A    between atoms: _528  and  _529
REMARK  215  A    between atoms: _528  and  _531
REMARK  216  A    between atoms: _531  and  _532
REMARK  217  A    between atoms: _532  and  _533
REMARK  218  A    between atoms: _533  and  _534
REMARK  219  A    between atoms: _543  and  _545
REMARK  220  A    between atoms: _545  and  _546
REMARK  221  A    between atoms: _545  and  _548
REMARK  222  A    between atoms: _548  and  _549
REMARK  223  A    between atoms: _549  and  _550
REMARK  224  A    between atoms: _553  and  _555
REMARK  225  A    between atoms: _555  and  _556
REMARK  226  A    between atoms: _555  and  _558
REMARK  227  A    between atoms: _558  and  _559
REMARK  228  A    between atoms: _559  and  _560
REMARK  229  A    between atoms: _563  and  _564
REMARK  230  A    between atoms: _569  and  _571
REMARK  231  A    between atoms: _571  and  _572
REMARK  232  A    between atoms: _571  and  _574
REMARK  233  A    between atoms: _574  and  _575
REMARK  234  A    between atoms: _575  and  _576
REMARK  235  A    between atoms: _578  and  _580
REMARK  236  A    between atoms: _580  and  _581
REMARK  237  A    between atoms: _583  and  _585
REMARK  238  A    between atoms: _585  and  _586
REMARK  239  A    between atoms: _585  and  _588
REMARK  240  A    between atoms: _591  and  _593
REMARK  241  A    between atoms: _593  and  _594
REMARK  242  A    between atoms: _593  and  _596
REMARK  243  A    between atoms: _596  and  _597
REMARK  244  A    between atoms: _607  and  _609
REMARK  245  A    between atoms: _609  and  _610
REMARK  246  A    between atoms: _609  and  _612
REMARK  247  A    between atoms: _612  and  _613
REMARK  248  A    between atoms: _613  and  _614
REMARK  249  A    between atoms: _618  and  _619
REMARK  250  A    between atoms: _624  and  _626
REMARK  251  A    between atoms: _626  and  _627
REMARK  252  A    between atoms: _626  and  _629
REMARK  253  A    between atoms: _629  and  _630
REMARK  254  A    between atoms: _633  and  _635
REMARK  255  A    between atoms: _635  and  _636
REMARK  256  A    between atoms: _635  and  _638
REMARK  257  A    between atoms: _638  and  _639
REMARK  258  A    between atoms: _644  and  _646
REMARK  259  A    between atoms: _646  and  _647
REMARK  260  A    between atoms: _646  and  _649
REMARK  261  A    between atoms: _649  and  _650
REMARK                            x       y       z     vdW  Elec       q    Type
REMARK                         _______ _______ _______ _____ _____    ______ ____
ROOT
ATOM      1  CA  ASP A   4      15.651  -1.439   6.804  0.00  0.00    +0.160 C 
ENDROOT
BRANCH   1   4
ATOM      2  C   ALA A   3      17.601  -1.747   8.275  0.00  0.00    +0.241 C 
ATOM      3  O   ALA A   3      17.592  -2.973   8.148  0.00  0.00    -0.273 OA
ATOM      4  N   ASP A   4      16.729  -0.942   7.667  0.00  0.00    -0.297 N 
ATOM      5  H   ASP A   4      16.817   0.084   7.811  0.00  0.00    +0.150 HD
BRANCH   2   6
ATOM      6  CA  ALA A   3      18.662  -1.071   9.150  0.00  0.00    +0.149 C 
ATOM      7  CB  ALA A   3      18.066  -0.621  10.475  0.00  0.00    +0.031 C 
BRANCH   6   9
ATOM      8  C   LYS A   2      19.821  -0.048   7.251  0.00  0.00    +0.241 C 
ATOM      9  N   ALA A   3      19.326   0.050   8.482  0.00  0.00    -0.297 N 
ATOM     10  H   ALA A   3      19.414   0.955   8.988  0.00  0.00    +0.150 HD
ATOM     11  O   LYS A   2      19.725  -1.065   6.561  0.00  0.00    -0.273 OA
BRANCH   8  12
ATOM     12  CA  LYS A   2      20.537   1.183   6.709  0.00  0.00    +0.149 C 
BRANCH  12  15
ATOM     13  C   LEU A   1      22.467   1.393   5.223  0.00  0.00    +0.238 C 
ATOM     14  O   LEU A   1      22.930   2.363   5.829  0.00  0.00    -0.274 OA
ATOM     15  N   LYS A   2      21.320   0.805   5.541  0.00  0.00    -0.297 N 
ATOM     16  H   LYS A   2      20.966   0.042   4.930  0.00  0.00    +0.150 HD
BRANCH  13  17
ATOM     17  CA  LEU A   1      23.187   0.801   4.022  0.00  0.00    +0.145 C 
BRANCH  17  18
ATOM     18  N   LEU A   1      24.026   1.792   3.364  0.00  0.00    -0.238 NA
ATOM     19  H   LEU A   1      25.060   1.681   3.392  0.00  0.00    +0.142 HD
ENDBRANCH  17  18
BRANCH  17  20
ATOM     20  CB  LEU A   1      24.006  -0.422   4.447  0.00  0.00    +0.026 C 
BRANCH  20  21
ATOM     21  CG  LEU A   1      24.259  -1.487   3.377  0.00  0.00    +0.002 C 
ATOM     22  CD2 LEU A   1      25.326  -2.459   3.845  0.00  0.00    +0.000 C 
ATOM     23  CD1 LEU A   1      22.975  -2.229   3.010  0.00  0.00    +0.000 C 
ENDBRANCH  20  21
ENDBRANCH  17  20
ENDBRANCH  13  17
ENDBRANCH  12  15
BRANCH  12  24
ATOM     24  CB  LYS A   2      19.549   2.307   6.372  0.00  0.00    +0.029 C 
BRANCH  24  25
ATOM     25  CG  LYS A   2      18.553   1.999   5.266  0.00  0.00    +0.000 C 
BRANCH  25  26
ATOM     26  CD  LYS A   2      17.790   3.256   4.886  0.00  0.00    -0.024 C 
BRANCH  26  27
ATOM     27  CE  LYS A   2      16.659   2.954   3.926  0.00  0.00    -0.086 C 
BRANCH  27  28
ATOM     28  NZ  LYS A   2      15.983   4.206   3.487  0.00  0.00    +0.380 N 
ATOM     29  HZ1 LYS A   2      15.594   4.698   4.317  0.00  0.00    -0.089 HD
ATOM     30  HZ2 LYS A   2      16.672   4.821   3.009  0.00  0.00    -0.089 HD
ATOM     31  HZ3 LYS A   2      15.212   3.970   2.830  0.00  0.00    -0.089 HD
ENDBRANCH  27  28
ENDBRANCH  26  27
ENDBRANCH  25  26
ENDBRANCH  24  25
ENDBRANCH  12  24
ENDBRANCH   8  12
ENDBRANCH   6   9
ENDBRANCH   2   6
ENDBRANCH   1   4
BRANCH   1  32
ATOM     32  C   ASP A   4      16.148  -2.357   5.685  0.00  0.00    +0.241 C 
ATOM     33  O   ASP A   4      15.525  -3.381   5.399  0.00  0.00    -0.273 OA
ATOM     34  N   THR A   5      17.272  -1.988   5.069  0.00  0.00    -0.295 N 
ATOM     35  H   THR A   5      17.759  -1.126   5.388  0.00  0.00    +0.150 HD
BRANCH  34  36
ATOM     36  CA  THR A   5      17.845  -2.752   3.961  0.00  0.00    +0.176 C 
BRANCH  36  37
ATOM     37  C   THR A   5      18.371  -4.109   4.427  0.00  0.00    +0.243 C 
ATOM     38  N   VAL A   6      19.110  -4.113   5.536  0.00  0.00    -0.297 N 
ATOM     39  H   VAL A   6      19.312  -3.205   6.000  0.00  0.00    +0.150 HD
ATOM     40  O   THR A   5      18.110  -5.126   3.788  0.00  0.00    -0.273 OA
BRANCH  38  41
ATOM     41  CA  VAL A   6      19.650  -5.336   6.131  0.00  0.00    +0.149 C 
BRANCH  41  42
ATOM     42  C   VAL A   6      18.521  -6.269   6.576  0.00  0.00    +0.241 C 
ATOM     43  N   ASN A   7      17.599  -5.730   7.371  0.00  0.00    -0.298 N 
ATOM     44  H   ASN A   7      17.692  -4.727   7.629  0.00  0.00    +0.150 HD
ATOM     45  O   VAL A   6      18.486  -7.443   6.194  0.00  0.00    -0.273 OA
BRANCH  43  46
ATOM     46  CA  ASN A   7      16.464  -6.482   7.898  0.00  0.00    +0.146 C 
BRANCH  46  47
ATOM     47  C   ASN A   7      15.516  -7.000   6.816  0.00  0.00    +0.227 C 
ATOM     48  O   ASN A   7      15.099  -8.156   6.864  0.00  0.00    -0.286 OA
ENDBRANCH  46  47
BRANCH  46  49
ATOM     49  CB  ASN A   7      15.692  -5.641   8.922  0.00  0.00    +0.112 C 
BRANCH  49  50
ATOM     50  CG  ASN A   7      16.467  -5.429  10.215  0.00  0.00    +0.222 C 
ATOM     51  ND2 ASN A   7      16.188  -4.323  10.893  0.00  0.00    -0.329 N 
ATOM     52 HD21 ASN A   7      16.677  -4.125  11.789  0.00  0.00    +0.145 HD
ATOM     53 HD22 ASN A   7      15.480  -3.654  10.528  0.00  0.00    +0.145 HD
ATOM     54  OD1 ASN A   7      17.296  -6.253  10.603  0.00  0.00    -0.275 OA
ENDBRANCH  49  50
ENDBRANCH  46  49
ENDBRANCH  43  46
ENDBRANCH  41  42
BRANCH  41  55
ATOM     55  CB  VAL A   6      20.598  -5.020   7.330  0.00  0.00    +0.027 C 
ATOM     56  CG2 VAL A   6      21.083  -6.295   8.002  0.00  0.00    +0.002 C 
ATOM     57  CG1 VAL A   6      21.788  -4.185   6.869  0.00  0.00    +0.002 C 
ENDBRANCH  41  55
ENDBRANCH  38  41
ENDBRANCH  36  37
BRANCH  36  58
ATOM     58  CB  THR A   5      18.981  -1.974   3.240  0.00  0.00    +0.137 C 
ATOM     59  CG2 THR A   5      19.274  -2.582   1.877  0.00  0.00    +0.034 C 
BRANCH  58  60
ATOM     60  OG1 THR A   5      18.607  -0.601   3.073  0.00  0.00    -0.382 OA
ATOM     61  HG1 THR A   5      17.781  -0.549   2.530  0.00  0.00    +0.210 HD
ENDBRANCH  58  60
ENDBRANCH  36  58
ENDBRANCH  34  36
ENDBRANCH   1  32
BRANCH   1  62
ATOM     62  CB  ASP A   4      14.846  -0.274   6.210  0.00  0.00    +0.143 C 
BRANCH  62  63
ATOM     63  CG  ASP A   4      13.924   0.394   7.224  0.00  0.00    +0.367 C 
ATOM     64  OD2 ASP A   4      13.892  -0.025   8.403  0.00  0.00    -0.246 OA
ATOM     65  OD1 ASP A   4      13.217   1.347   6.834  0.00  0.00    -0.246 OA
ENDBRANCH  62  63
ENDBRANCH   1  62
TORSDOF 28
REMARK  Name = ../refined-set-2016/2zym/2zym_pocket.pdb
REMARK  261 active torsions:
REMARK  status: ('A' for Active; 'I' for Inactive)
REMARK    1  A    between atoms: _1  and  _3
REMARK    2  A    between atoms: _3  and  _4
REMARK    3  A    between atoms: _3  and  _6
REMARK    4  A    between atoms: _6  and  _7
REMARK    5  A    between atoms: _7  and  _8
REMARK    6  A    between atoms: _11  and  _13
REMARK    7  A    between atoms: _13  and  _14
REMARK    8  A    between atoms: _13  and  _16
REMARK    9  A    between atoms: _16  and  _17
REMARK   10  A    between atoms: _22  and  _24
REMARK   11  A    between atoms: _24  and  _25
REMARK   12  A    between atoms: _28  and  _30
REMARK   13  A    between atoms: _30  and  _31
REMARK   14  A    between atoms: _30  and  _33
REMARK   15  A    between atoms: _33  and  _34
REMARK   16  A    between atoms: _37  and  _39
REMARK   17  A    between atoms: _39  and  _40
REMARK   18  A    between atoms: _39  and  _42
REMARK   19  A    between atoms: _42  and  _43
REMARK   20  A    between atoms: _43  and  _44
REMARK   21  A    between atoms: _49  and  _51
REMARK   22  A    between atoms: _51  and  _52
REMARK   23  A    between atoms: _51  and  _54
REMARK   24  A    between atoms: _57  and  _59
REMARK   25  A    between atoms: _59  and  _60
REMARK   26  A    between atoms: _63  and  _65
REMARK   27  A    between atoms: _65  and  _66
REMARK   28  A    between atoms: _65  and  _68
REMARK   29  A    between atoms: _68  and  _69
REMARK   30  A    between atoms: _72  and  _74
REMARK   31  A    between atoms: _74  and  _75
REMARK   32  A    between atoms: _74  and  _77
REMARK   33  A    between atoms: _77  and  _78
REMARK   34  A    between atoms: _81  and  _83
REMARK   35  A    between atoms: _83  and  _84
REMARK   36  A    between atoms: _83  and  _86
REMARK   37  A    between atoms: _86  and  _87
REMARK   38  A    between atoms: _87  and  _88
REMARK   39  A    between atoms: _88  and  _89
REMARK   40  A    between atoms: _89  and  _90
REMARK   41  A    between atoms: _94  and  _96
REMARK   42  A    between atoms: _96  and  _97
REMARK   43  A    between atoms: _96  and  _99
REMARK   44  A    between atoms: _99  and  _100
REMARK   45  A    between atoms: _100  and  _101
REMARK   46  A    between atoms: _106  and  _108
REMARK   47  A    between atoms: _108  and  _109
REMARK   48  A    between atoms: _108  and  _111
REMARK   49  A    between atoms: _111  and  _112
REMARK   50  A    between atoms: _112  and  _113
REMARK   51  A    between atoms: _118  and  _120
REMARK   52  A    between atoms: _120  and  _121
REMARK   53  A    between atoms: _120  and  _123
REMARK   54  A    between atoms: _123  and  _124
REMARK   55  A    between atoms: _124  and  _125
REMARK   56  A    between atoms: _128  and  _130
REMARK   57  A    between atoms: _130  and  _131
REMARK   58  A    between atoms: _130  and  _133
REMARK   59  A    between atoms: _133  and  _134
REMARK   60  A    between atoms: _134  and  _135
REMARK   61  A    between atoms: _135  and  _136
REMARK   62  A    between atoms: _136  and  _137
REMARK   63  A    between atoms: _141  and  _143
REMARK   64  A    between atoms: _143  and  _144
REMARK   65  A    between atoms: _143  and  _146
REMARK   66  A    between atoms: _146  and  _147
REMARK   67  A    between atoms: _150  and  _152
REMARK   68  A    between atoms: _152  and  _153
REMARK   69  A    between atoms: _152  and  _155
REMARK   70  A    between atoms: _155  and  _156
REMARK   71  A    between atoms: _167  and  _168
REMARK   72  A    between atoms: _173  and  _175
REMARK   73  A    between atoms: _175  and  _176
REMARK   74  A    between atoms: _175  and  _178
REMARK   75  A    between atoms: _178  and  _179
REMARK   76  A    between atoms: _184  and  _186
REMARK   77  A    between atoms: _186  and  _187
REMARK   78  A    between atoms: _186  and  _189
REMARK   79  A    between atoms: _189  and  _190
REMARK   80  A    between atoms: _193  and  _195
REMARK   81  A    between atoms: _195  and  _196
REMARK   82  A    between atoms: _195  and  _198
REMARK   83  A    between atoms: _198  and  _199
REMARK   84  A    between atoms: _199  and  _200
REMARK   85  A    between atoms: _200  and  _201
REMARK   86  A    between atoms: _210  and  _212
REMARK   87  A    between atoms: _212  and  _213
REMARK   88  A    between atoms: _212  and  _215
REMARK   89  A    between atoms: _215  and  _216
REMARK   90  A    between atoms: _219  and  _221
REMARK   91  A    between atoms: _221  and  _222
REMARK   92  A    between atoms: _221  and  _224
REMARK   93  A    between atoms: _224  and  _225
REMARK   94  A    between atoms: _225  and  _226
REMARK   95  A    between atoms: _229  and  _231
REMARK   96  A    between atoms: _231  and  _232
REMARK   97  A    between atoms: _231  and  _234
REMARK   98  A    between atoms: _234  and  _235
REMARK   99  A    between atoms: _235  and  _236
REMARK  100  A    between atoms: _236  and  _237
REMARK  101  A    between atoms: _237  and  _238
REMARK  102  A    between atoms: _242  and  _244
REMARK  103  A    between atoms: _244  and  _245
REMARK  104  A    between atoms: _248  and  _250
REMARK  105  A    between atoms: _250  and  _251
REMARK  106  A    between atoms: _250  and  _253
REMARK  107  A    between atoms: _253  and  _254
REMARK  108  A    between atoms: _254  and  _255
REMARK  109  A    between atoms: _258  and  _260
REMARK  110  A    between atoms: _260  and  _261
REMARK  111  A    between atoms: _260  and  _263
REMARK  112  A    between atoms: _263  and  _264
REMARK  113  A    between atoms: _266  and  _268
REMARK  114  A    between atoms: _268  and  _269
REMARK  115  A    between atoms: _268  and  _271
REMARK  116  A    between atoms: _274  and  _276
REMARK  117  A    between atoms: _276  and  _277
REMARK  118  A    between atoms: _276  and  _279
REMARK  119  A    between atoms: _279  and  _280
REMARK  120  A    between atoms: _280  and  _281
REMARK  121  A    between atoms: _284  and  _286
REMARK  122  A    between atoms: _286  and  _287
REMARK  123  A    between atoms: _286  and  _289
REMARK  124  A    between atoms: _289  and  _290
REMARK  125  A    between atoms: _295  and  _297
REMARK  126  A    between atoms: _297  and  _298
REMARK  127  A    between atoms: _297  and  _300
REMARK  128  A    between atoms: _300  and  _301
REMARK  129  A    between atoms: _306  and  _308
REMARK  130  A    between atoms: _308  and  _309
REMARK  131  A    between atoms: _308  and  _311
REMARK  132  A    between atoms: _311  and  _312
REMARK  133  A    between atoms: _318  and  _320
REMARK  134  A    between atoms: _320  and  _321
REMARK  135  A    between atoms: _320  and  _323
REMARK  136  A    between atoms: _323  and  _324
REMARK  137  A    between atoms: _329  and  _330
REMARK  138  A    between atoms: _332  and  _334
REMARK  139  A    between atoms: _334  and  _335
REMARK  140  A    between atoms: _334  and  _337
REMARK  141  A    between atoms: _337  and  _338
REMARK  142  A    between atoms: _343  and  _344
REMARK  143  A    between atoms: _346  and  _348
REMARK  144  A    between atoms: _348  and  _349
REMARK  145  A    between atoms: _348  and  _351
REMARK  146  A    between atoms: _351  and  _352
REMARK  147  A    between atoms: _355  and  _357
REMARK  148  A    between atoms: _357  and  _358
REMARK  149  A    between atoms: _357  and  _360
REMARK  150  A    between atoms: _360  and  _361
REMARK  151  A    between atoms: _364  and  _366
REMARK  152  A    between atoms: _366  and  _367
REMARK  153  A    between atoms: _366  and  _369
REMARK  154  A    between atoms: _369  and  _370
REMARK  155  A    between atoms: _370  and  _371
REMARK  156  A    between atoms: _371  and  _372
REMARK  157  A    between atoms: _372  and  _373
REMARK  158  A    between atoms: _377  and  _379
REMARK  159  A    between atoms: _379  and  _380
REMARK  160  A    between atoms: _383  and  _385
REMARK  161  A    between atoms: _385  and  _386
REMARK  162  A    between atoms: _385  and  _388
REMARK  163  A    between atoms: _388  and  _389
REMARK  164  A    between atoms: _392  and  _394
REMARK  165  A    between atoms: _394  and  _395
REMARK  166  A    between atoms: _394  and  _397
REMARK  167  A    between atoms: _397  and  _398
REMARK  168  A    between atoms: _401  and  _403
REMARK  169  A    between atoms: _403  and  _404
REMARK  170  A    between atoms: _403  and  _406
REMARK  171  A    between atoms: _409  and  _411
REMARK  172  A    between atoms: _411  and  _412
REMARK  173  A    between atoms: _411  and  _414
REMARK  174  A    between atoms: _414  and  _415
REMARK  175  A    between atoms: _420  and  _422
REMARK  176  A    between atoms: _422  and  _423
REMARK  177  A    between atoms: _422  and  _425
REMARK  178  A    between atoms: _425  and  _426
REMARK  179  A    between atoms: _431  and  _433
REMARK  180  A    between atoms: _433  and  _434
REMARK  181  A    between atoms: _437  and  _438
REMARK  182  A    between atoms: _443  and  _445
REMARK  183  A    between atoms: _445  and  _446
REMARK  184  A    between atoms: _445  and  _448
REMARK  185  A    between atoms: _448  and  _449
REMARK  186  A    between atoms: _459  and  _461
REMARK  187  A    between atoms: _461  and  _462
REMARK  188  A    between atoms: _465  and  _467
REMARK  189  A    between atoms: _467  and  _468
REMARK  190  A    between atoms: _467  and  _470
REMARK  191  A    between atoms: _470  and  _471
REMARK  192  A    between atoms: _476  and  _477
REMARK  193  A    between atoms: _479  and  _481
REMARK  194  A    between atoms: _481  and  _482
REMARK  195  A    between atoms: _481  and  _484
REMARK  196  A    between atoms: _484  and  _485
REMARK  197  A    between atoms: _491  and  _493
REMARK  198  A    between atoms: _493  and  _494
REMARK  199  A    between atoms: _493  and  _496
REMARK  200  A    between atoms: _496  and  _497
REMARK  201  A    between atoms: _500  and  _502
REMARK  202  A    between atoms: _502  and  _503
REMARK  203  A    between atoms: _505  and  _507
REMARK  204  A    between atoms: _507  and  _508
REMARK  205  A    between atoms: _507  and  _510
REMARK  206  A    between atoms: _513  and  _515
REMARK  207  A    between atoms: _515  and  _516
REMARK  208  A    between atoms: _515  and  _518
REMARK  209  A    between atoms: _518  and  _519
REMARK  210  A    between atoms: _519  and  _520
REMARK  211  A    between atoms: _520  and  _521
REMARK  212  A    between atoms: _521  and  _522
REMARK  213  A    between atoms: _526  and  _528
REMARK  214  A    between atoms: _528  and  _529
REMARK  215  A    between atoms: _528  and  _531
REMARK  216  A    between atoms: _531  and  _532
REMARK  217  A    between atoms: _532  and  _533
REMARK  218  A    between atoms: _533  and  _534
REMARK  219  A    between atoms: _543  and  _545
REMARK  220  A    between atoms: _545  and  _546
REMARK  221  A    between atoms: _545  and  _548
REMARK  222  A    between atoms: _548  and  _549
REMARK  223  A    between atoms: _549  and  _550
REMARK  224  A    between atoms: _553  and  _555
REMARK  225  A    between atoms: _555  and  _556
REMARK  226  A    between atoms: _555  and  _558
REMARK  227  A    between atoms: _558  and  _559
REMARK  228  A    between atoms: _559  and  _560
REMARK  229  A    between atoms: _563  and  _564
REMARK  230  A    between atoms: _569  and  _571
REMARK  231  A    between atoms: _571  and  _572
REMARK  232  A    between atoms: _571  and  _574
REMARK  233  A    between atoms: _574  and  _575
REMARK  234  A    between atoms: _575  and  _576
REMARK  235  A    between atoms: _578  and  _580
REMARK  236  A    between atoms: _580  and  _581
REMARK  237  A    between atoms: _583  and  _585
REMARK  238  A    between atoms: _585  and  _586
REMARK  239  A    between atoms: _585  and  _588
REMARK  240  A    between atoms: _591  and  _593
REMARK  241  A    between atoms: _593  and  _594
REMARK  242  A    between atoms: _593  and  _596
REMARK  243  A    between atoms: _596  and  _597
REMARK  244  A    between atoms: _607  and  _609
REMARK  245  A    between atoms: _609  and  _610
REMARK  246  A    between atoms: _609  and  _612
REMARK  247  A    between atoms: _612  and  _613
REMARK  248  A    between atoms: _613  and  _614
REMARK  249  A    between atoms: _618  and  _619
REMARK  250  A    between atoms: _624  and  _626
REMARK  251  A    between atoms: _626  and  _627
REMARK  252  A    between atoms: _626  and  _629
REMARK  253  A    between atoms: _629  and  _630
REMARK  254  A    between atoms: _633  and  _635
REMARK  255  A    between atoms: _635  and  _636
REMARK  256  A    between atoms: _635  and  _638
REMARK  257  A    between atoms: _638  and  _639
REMARK  258  A    between atoms: _644  and  _646
REMARK  259  A    between atoms: _646  and  _647
REMARK  260  A    between atoms: _646  and  _649
REMARK  261  A    between atoms: _649  and  _650
REMARK                            x       y       z     vdW  Elec       q    Type
REMARK                         _______ _______ _______ _____ _____    ______ ____
ROOT
ATOM      1  C   PRO A   3      16.865  -8.277  19.452  0.00  0.00    +0.241 C 
ATOM      2  O   PRO A   3      15.838  -8.954  19.388  0.00  0.00    -0.273 OA
ATOM      3  N   TRP A   4      16.912  -6.990  19.125  0.00  0.00    -0.297 N 
ATOM      4  H   TRP A   4      17.825  -6.495  19.181  0.00  0.00    +0.150 HD
ENDROOT
BRANCH   1  10
ATOM      5  C   GLY A   2      19.677  -8.033  18.147  0.00  0.00    +0.246 C 
ATOM      6  N   PRO A   3      19.388  -8.234  19.446  0.00  0.00    -0.272 N 
ATOM      7  CD  PRO A   3      20.241  -7.816  20.574  0.00  0.00    +0.094 C 
ATOM      8  CG  PRO A   3      19.763  -8.689  21.684  0.00  0.00    +0.024 C 
ATOM      9  CB  PRO A   3      18.296  -8.837  21.436  0.00  0.00    +0.031 C 
ATOM     10  CA  PRO A   3      18.175  -8.919  19.914  0.00  0.00    +0.152 C 
ATOM     11  O   GLY A   2      18.908  -8.346  17.237  0.00  0.00    -0.273 OA
BRANCH   5  12
ATOM     12  CA  GLY A   2      21.011  -7.379  17.837  0.00  0.00    +0.176 C 
BRANCH  12  14
ATOM     13  C   ASN A   1      22.217  -8.008  15.811  0.00  0.00    +0.239 C 
ATOM     14  N   GLY A   2      21.320  -7.237  16.417  0.00  0.00    -0.296 N 
ATOM     15  H   GLY A   2      20.823  -6.511  15.863  0.00  0.00    +0.150 HD
ATOM     16  O   ASN A   1      22.766  -8.958  16.368  0.00  0.00    -0.274 OA
BRANCH  13  17
ATOM     17  CA  ASN A   1      22.539  -7.671  14.352  0.00  0.00    +0.154 C 
BRANCH  17  18
ATOM     18  N   ASN A   1      23.632  -8.490  13.836  0.00  0.00    -0.238 NA
ATOM     19  H   ASN A   1      23.778  -9.440  14.233  0.00  0.00    +0.142 HD
ENDBRANCH  17  18
BRANCH  17  20
ATOM     20  CB  ASN A   1      21.291  -7.828  13.466  0.00  0.00    +0.111 C 
BRANCH  20  21
ATOM     21  CG  ASN A   1      20.453  -6.557  13.397  0.00  0.00    +0.221 C 
ATOM     22  OD1 ASN A   1      20.763  -5.556  14.042  0.00  0.00    -0.275 OA
ATOM     23  ND2 ASN A   1      19.393  -6.589  12.593  0.00  0.00    -0.329 N 
ATOM     24 HD21 ASN A   1      18.791  -5.747  12.492  0.00  0.00    +0.145 HD
ATOM     25 HD22 ASN A   1      19.166  -7.456  12.066  0.00  0.00    +0.145 HD
ENDBRANCH  20  21
ENDBRANCH  17  20
ENDBRANCH  13  17
ENDBRANCH  12  14
ENDBRANCH   5  12
ENDBRANCH   1  10
BRANCH   3  26
ATOM     26  CA  TRP A   4      15.734  -6.241  18.689  0.00  0.00    +0.153 C 
BRANCH  26  27
ATOM     27  C   TRP A   4      15.069  -6.795  17.424  0.00  0.00    +0.241 C 
ATOM     28  O   TRP A   4      13.873  -6.609  17.222  0.00  0.00    -0.273 OA
ATOM     29  N   ALA A   5      15.843  -7.483  16.590  0.00  0.00    -0.298 N 
ATOM     30  H   ALA A   5      16.822  -7.696  16.869  0.00  0.00    +0.150 HD
BRANCH  29  31
ATOM     31  CA  ALA A   5      15.355  -7.950  15.288  0.00  0.00    +0.137 C 
ATOM     32  CB  ALA A   5      16.461  -7.828  14.238  0.00  0.00    +0.030 C 
BRANCH  31  33
ATOM     33  C   ALA A   5      14.769  -9.365  15.286  0.00  0.00    +0.227 C 
ATOM     34  O   ALA A   5      14.246  -9.815  14.266  0.00  0.00    -0.286 OA
ENDBRANCH  31  33
ENDBRANCH  29  31
ENDBRANCH  26  27
BRANCH  26  35
ATOM     35  CB  TRP A   4      16.095  -4.768  18.481  0.00  0.00    +0.057 C 
BRANCH  35  36
ATOM     36  CG  TRP A   4      17.296  -4.554  17.597  0.00  0.00    -0.002 A 
ATOM     37  CD2 TRP A   4      18.648  -4.350  18.023  0.00  0.00    +0.013 A 
ATOM     38  CE3 TRP A   4      19.274  -4.284  19.277  0.00  0.00    +0.001 A 
ATOM     39  CZ3 TRP A   4      20.649  -4.065  19.328  0.00  0.00    +0.000 A 
ATOM     40  CH2 TRP A   4      21.402  -3.910  18.154  0.00  0.00    +0.001 A 
ATOM     41  CZ2 TRP A   4      20.815  -3.961  16.914  0.00  0.00    +0.017 A 
ATOM     42  CE2 TRP A   4      19.432  -4.187  16.862  0.00  0.00    +0.056 A 
ATOM     43  NE1 TRP A   4      18.593  -4.286  15.781  0.00  0.00    -0.352 N 
ATOM     44  HE1 TRP A   4      18.878  -4.207  14.784  0.00  0.00    +0.166 HD
ATOM     45  CD1 TRP A   4      17.313  -4.507  16.232  0.00  0.00    +0.068 A 
ENDBRANCH  35  36
ENDBRANCH  26  35
ENDBRANCH   3  26
TORSDOF 13
REMARK  Name = ../refined-set-2016/2zym/2zym_pocket.pdb
REMARK  261 active torsions:
REMARK  status: ('A' for Active; 'I' for Inactive)
REMARK    1  A    between atoms: _1  and  _3
REMARK    2  A    between atoms: _3  and  _4
REMARK    3  A    between atoms: _3  and  _6
REMARK    4  A    between atoms: _6  and  _7
REMARK    5  A    between atoms: _7  and  _8
REMARK    6  A    between atoms: _11  and  _13
REMARK    7  A    between atoms: _13  and  _14
REMARK    8  A    between atoms: _13  and  _16
REMARK    9  A    between atoms: _16  and  _17
REMARK   10  A    between atoms: _22  and  _24
REMARK   11  A    between atoms: _24  and  _25
REMARK   12  A    between atoms: _28  and  _30
REMARK   13  A    between atoms: _30  and  _31
REMARK   14  A    between atoms: _30  and  _33
REMARK   15  A    between atoms: _33  and  _34
REMARK   16  A    between atoms: _37  and  _39
REMARK   17  A    between atoms: _39  and  _40
REMARK   18  A    between atoms: _39  and  _42
REMARK   19  A    between atoms: _42  and  _43
REMARK   20  A    between atoms: _43  and  _44
REMARK   21  A    between atoms: _49  and  _51
REMARK   22  A    between atoms: _51  and  _52
REMARK   23  A    between atoms: _51  and  _54
REMARK   24  A    between atoms: _57  and  _59
REMARK   25  A    between atoms: _59  and  _60
REMARK   26  A    between atoms: _63  and  _65
REMARK   27  A    between atoms: _65  and  _66
REMARK   28  A    between atoms: _65  and  _68
REMARK   29  A    between atoms: _68  and  _69
REMARK   30  A    between atoms: _72  and  _74
REMARK   31  A    between atoms: _74  and  _75
REMARK   32  A    between atoms: _74  and  _77
REMARK   33  A    between atoms: _77  and  _78
REMARK   34  A    between atoms: _81  and  _83
REMARK   35  A    between atoms: _83  and  _84
REMARK   36  A    between atoms: _83  and  _86
REMARK   37  A    between atoms: _86  and  _87
REMARK   38  A    between atoms: _87  and  _88
REMARK   39  A    between atoms: _88  and  _89
REMARK   40  A    between atoms: _89  and  _90
REMARK   41  A    between atoms: _94  and  _96
REMARK   42  A    between atoms: _96  and  _97
REMARK   43  A    between atoms: _96  and  _99
REMARK   44  A    between atoms: _99  and  _100
REMARK   45  A    between atoms: _100  and  _101
REMARK   46  A    between atoms: _106  and  _108
REMARK   47  A    between atoms: _108  and  _109
REMARK   48  A    between atoms: _108  and  _111
REMARK   49  A    between atoms: _111  and  _112
REMARK   50  A    between atoms: _112  and  _113
REMARK   51  A    between atoms: _118  and  _120
REMARK   52  A    between atoms: _120  and  _121
REMARK   53  A    between atoms: _120  and  _123
REMARK   54  A    between atoms: _123  and  _124
REMARK   55  A    between atoms: _124  and  _125
REMARK   56  A    between atoms: _128  and  _130
REMARK   57  A    between atoms: _130  and  _131
REMARK   58  A    between atoms: _130  and  _133
REMARK   59  A    between atoms: _133  and  _134
REMARK   60  A    between atoms: _134  and  _135
REMARK   61  A    between atoms: _135  and  _136
REMARK   62  A    between atoms: _136  and  _137
REMARK   63  A    between atoms: _141  and  _143
REMARK   64  A    between atoms: _143  and  _144
REMARK   65  A    between atoms: _143  and  _146
REMARK   66  A    between atoms: _146  and  _147
REMARK   67  A    between atoms: _150  and  _152
REMARK   68  A    between atoms: _152  and  _153
REMARK   69  A    between atoms: _152  and  _155
REMARK   70  A    between atoms: _155  and  _156
REMARK   71  A    between atoms: _167  and  _168
REMARK   72  A    between atoms: _173  and  _175
REMARK   73  A    between atoms: _175  and  _176
REMARK   74  A    between atoms: _175  and  _178
REMARK   75  A    between atoms: _178  and  _179
REMARK   76  A    between atoms: _184  and  _186
REMARK   77  A    between atoms: _186  and  _187
REMARK   78  A    between atoms: _186  and  _189
REMARK   79  A    between atoms: _189  and  _190
REMARK   80  A    between atoms: _193  and  _195
REMARK   81  A    between atoms: _195  and  _196
REMARK   82  A    between atoms: _195  and  _198
REMARK   83  A    between atoms: _198  and  _199
REMARK   84  A    between atoms: _199  and  _200
REMARK   85  A    between atoms: _200  and  _201
REMARK   86  A    between atoms: _210  and  _212
REMARK   87  A    between atoms: _212  and  _213
REMARK   88  A    between atoms: _212  and  _215
REMARK   89  A    between atoms: _215  and  _216
REMARK   90  A    between atoms: _219  and  _221
REMARK   91  A    between atoms: _221  and  _222
REMARK   92  A    between atoms: _221  and  _224
REMARK   93  A    between atoms: _224  and  _225
REMARK   94  A    between atoms: _225  and  _226
REMARK   95  A    between atoms: _229  and  _231
REMARK   96  A    between atoms: _231  and  _232
REMARK   97  A    between atoms: _231  and  _234
REMARK   98  A    between atoms: _234  and  _235
REMARK   99  A    between atoms: _235  and  _236
REMARK  100  A    between atoms: _236  and  _237
REMARK  101  A    between atoms: _237  and  _238
REMARK  102  A    between atoms: _242  and  _244
REMARK  103  A    between atoms: _244  and  _245
REMARK  104  A    between atoms: _248  and  _250
REMARK  105  A    between atoms: _250  and  _251
REMARK  106  A    between atoms: _250  and  _253
REMARK  107  A    between atoms: _253  and  _254
REMARK  108  A    between atoms: _254  and  _255
REMARK  109  A    between atoms: _258  and  _260
REMARK  110  A    between atoms: _260  and  _261
REMARK  111  A    between atoms: _260  and  _263
REMARK  112  A    between atoms: _263  and  _264
REMARK  113  A    between atoms: _266  and  _268
REMARK  114  A    between atoms: _268  and  _269
REMARK  115  A    between atoms: _268  and  _271
REMARK  116  A    between atoms: _274  and  _276
REMARK  117  A    between atoms: _276  and  _277
REMARK  118  A    between atoms: _276  and  _279
REMARK  119  A    between atoms: _279  and  _280
REMARK  120  A    between atoms: _280  and  _281
REMARK  121  A    between atoms: _284  and  _286
REMARK  122  A    between atoms: _286  and  _287
REMARK  123  A    between atoms: _286  and  _289
REMARK  124  A    between atoms: _289  and  _290
REMARK  125  A    between atoms: _295  and  _297
REMARK  126  A    between atoms: _297  and  _298
REMARK  127  A    between atoms: _297  and  _300
REMARK  128  A    between atoms: _300  and  _301
REMARK  129  A    between atoms: _306  and  _308
REMARK  130  A    between atoms: _308  and  _309
REMARK  131  A    between atoms: _308  and  _311
REMARK  132  A    between atoms: _311  and  _312
REMARK  133  A    between atoms: _318  and  _320
REMARK  134  A    between atoms: _320  and  _321
REMARK  135  A    between atoms: _320  and  _323
REMARK  136  A    between atoms: _323  and  _324
REMARK  137  A    between atoms: _329  and  _330
REMARK  138  A    between atoms: _332  and  _334
REMARK  139  A    between atoms: _334  and  _335
REMARK  140  A    between atoms: _334  and  _337
REMARK  141  A    between atoms: _337  and  _338
REMARK  142  A    between atoms: _343  and  _344
REMARK  143  A    between atoms: _346  and  _348
REMARK  144  A    between atoms: _348  and  _349
REMARK  145  A    between atoms: _348  and  _351
REMARK  146  A    between atoms: _351  and  _352
REMARK  147  A    between atoms: _355  and  _357
REMARK  148  A    between atoms: _357  and  _358
REMARK  149  A    between atoms: _357  and  _360
REMARK  150  A    between atoms: _360  and  _361
REMARK  151  A    between atoms: _364  and  _366
REMARK  152  A    between atoms: _366  and  _367
REMARK  153  A    between atoms: _366  and  _369
REMARK  154  A    between atoms: _369  and  _370
REMARK  155  A    between atoms: _370  and  _371
REMARK  156  A    between atoms: _371  and  _372
REMARK  157  A    between atoms: _372  and  _373
REMARK  158  A    between atoms: _377  and  _379
REMARK  159  A    between atoms: _379  and  _380
REMARK  160  A    between atoms: _383  and  _385
REMARK  161  A    between atoms: _385  and  _386
REMARK  162  A    between atoms: _385  and  _388
REMARK  163  A    between atoms: _388  and  _389
REMARK  164  A    between atoms: _392  and  _394
REMARK  165  A    between atoms: _394  and  _395
REMARK  166  A    between atoms: _394  and  _397
REMARK  167  A    between atoms: _397  and  _398
REMARK  168  A    between atoms: _401  and  _403
REMARK  169  A    between atoms: _403  and  _404
REMARK  170  A    between atoms: _403  and  _406
REMARK  171  A    between atoms: _409  and  _411
REMARK  172  A    between atoms: _411  and  _412
REMARK  173  A    between atoms: _411  and  _414
REMARK  174  A    between atoms: _414  and  _415
REMARK  175  A    between atoms: _420  and  _422
REMARK  176  A    between atoms: _422  and  _423
REMARK  177  A    between atoms: _422  and  _425
REMARK  178  A    between atoms: _425  and  _426
REMARK  179  A    between atoms: _431  and  _433
REMARK  180  A    between atoms: _433  and  _434
REMARK  181  A    between atoms: _437  and  _438
REMARK  182  A    between atoms: _443  and  _445
REMARK  183  A    between atoms: _445  and  _446
REMARK  184  A    between atoms: _445  and  _448
REMARK  185  A    between atoms: _448  and  _449
REMARK  186  A    between atoms: _459  and  _461
REMARK  187  A    between atoms: _461  and  _462
REMARK  188  A    between atoms: _465  and  _467
REMARK  189  A    between atoms: _467  and  _468
REMARK  190  A    between atoms: _467  and  _470
REMARK  191  A    between atoms: _470  and  _471
REMARK  192  A    between atoms: _476  and  _477
REMARK  193  A    between atoms: _479  and  _481
REMARK  194  A    between atoms: _481  and  _482
REMARK  195  A    between atoms: _481  and  _484
REMARK  196  A    between atoms: _484  and  _485
REMARK  197  A    between atoms: _491  and  _493
REMARK  198  A    between atoms: _493  and  _494
REMARK  199  A    between atoms: _493  and  _496
REMARK  200  A    between atoms: _496  and  _497
REMARK  201  A    between atoms: _500  and  _502
REMARK  202  A    between atoms: _502  and  _503
REMARK  203  A    between atoms: _505  and  _507
REMARK  204  A    between atoms: _507  and  _508
REMARK  205  A    between atoms: _507  and  _510
REMARK  206  A    between atoms: _513  and  _515
REMARK  207  A    between atoms: _515  and  _516
REMARK  208  A    between atoms: _515  and  _518
REMARK  209  A    between atoms: _518  and  _519
REMARK  210  A    between atoms: _519  and  _520
REMARK  211  A    between atoms: _520  and  _521
REMARK  212  A    between atoms: _521  and  _522
REMARK  213  A    between atoms: _526  and  _528
REMARK  214  A    between atoms: _528  and  _529
REMARK  215  A    between atoms: _528  and  _531
REMARK  216  A    between atoms: _531  and  _532
REMARK  217  A    between atoms: _532  and  _533
REMARK  218  A    between atoms: _533  and  _534
REMARK  219  A    between atoms: _543  and  _545
REMARK  220  A    between atoms: _545  and  _546
REMARK  221  A    between atoms: _545  and  _548
REMARK  222  A    between atoms: _548  and  _549
REMARK  223  A    between atoms: _549  and  _550
REMARK  224  A    between atoms: _553  and  _555
REMARK  225  A    between atoms: _555  and  _556
REMARK  226  A    between atoms: _555  and  _558
REMARK  227  A    between atoms: _558  and  _559
REMARK  228  A    between atoms: _559  and  _560
REMARK  229  A    between atoms: _563  and  _564
REMARK  230  A    between atoms: _569  and  _571
REMARK  231  A    between atoms: _571  and  _572
REMARK  232  A    between atoms: _571  and  _574
REMARK  233  A    between atoms: _574  and  _575
REMARK  234  A    between atoms: _575  and  _576
REMARK  235  A    between atoms: _578  and  _580
REMARK  236  A    between atoms: _580  and  _581
REMARK  237  A    between atoms: _583  and  _585
REMARK  238  A    between atoms: _585  and  _586
REMARK  239  A    between atoms: _585  and  _588
REMARK  240  A    between atoms: _591  and  _593
REMARK  241  A    between atoms: _593  and  _594
REMARK  242  A    between atoms: _593  and  _596
REMARK  243  A    between atoms: _596  and  _597
REMARK  244  A    between atoms: _607  and  _609
REMARK  245  A    between atoms: _609  and  _610
REMARK  246  A    between atoms: _609  and  _612
REMARK  247  A    between atoms: _612  and  _613
REMARK  248  A    between atoms: _613  and  _614
REMARK  249  A    between atoms: _618  and  _619
REMARK  250  A    between atoms: _624  and  _626
REMARK  251  A    between atoms: _626  and  _627
REMARK  252  A    between atoms: _626  and  _629
REMARK  253  A    between atoms: _629  and  _630
REMARK  254  A    between atoms: _633  and  _635
REMARK  255  A    between atoms: _635  and  _636
REMARK  256  A    between atoms: _635  and  _638
REMARK  257  A    between atoms: _638  and  _639
REMARK  258  A    between atoms: _644  and  _646
REMARK  259  A    between atoms: _646  and  _647
REMARK  260  A    between atoms: _646  and  _649
REMARK  261  A    between atoms: _649  and  _650
REMARK                            x       y       z     vdW  Elec       q    Type
REMARK                         _______ _______ _______ _____ _____    ______ ____
ROOT
ATOM      1  CG  TYR A   1      15.226 -11.538  11.743  0.00  0.00    -0.020 A 
ATOM      2  CD2 TYR A   1      16.518 -11.605  12.272  0.00  0.00    -0.001 A 
ATOM      3  CE2 TYR A   1      17.477 -10.644  11.957  0.00  0.00    +0.036 A 
ATOM      4  CZ  TYR A   1      17.146  -9.605  11.100  0.00  0.00    +0.134 A 
ATOM      5  CE1 TYR A   1      15.874  -9.517  10.558  0.00  0.00    +0.036 A 
ATOM      6  CD1 TYR A   1      14.925 -10.487  10.874  0.00  0.00    -0.001 A 
ENDROOT
BRANCH   4   7
ATOM      7  OH  TYR A   1      18.081  -8.653  10.781  0.00  0.00    -0.506 OA
ATOM      8  HH  TYR A   1      17.679  -7.992  10.164  0.00  0.00    +0.292 HD
ENDBRANCH   4   7
BRANCH   1   9
ATOM      9  CB  TYR A   1      14.197 -12.607  12.082  0.00  0.00    +0.051 C 
BRANCH   9  10
ATOM     10  CA  TYR A   1      12.747 -12.303  11.678  0.00  0.00    +0.137 C 
BRANCH  10  11
ATOM     11  N   TYR A   1      12.202 -11.213  12.483  0.00  0.00    -0.239 NA
ATOM     12  H   TYR A   1      12.776 -10.838  13.265  0.00  0.00    +0.142 HD
ENDBRANCH  10  11
BRANCH  10  13
ATOM     13  C   TYR A   1      11.908 -13.574  11.802  0.00  0.00    +0.224 C 
ATOM     14  O   TYR A   1      11.645 -14.249  10.807  0.00  0.00    -0.287 OA
ENDBRANCH  10  13
ENDBRANCH   9  10
ENDBRANCH   1   9
TORSDOF 5
REMARK  Name = ../refined-set-2016/2zym/2zym_pocket.pdb
REMARK  261 active torsions:
REMARK  status: ('A' for Active; 'I' for Inactive)
REMARK    1  A    between atoms: _1  and  _3
REMARK    2  A    between atoms: _3  and  _4
REMARK    3  A    between atoms: _3  and  _6
REMARK    4  A    between atoms: _6  and  _7
REMARK    5  A    between atoms: _7  and  _8
REMARK    6  A    between atoms: _11  and  _13
REMARK    7  A    between atoms: _13  and  _14
REMARK    8  A    between atoms: _13  and  _16
REMARK    9  A    between atoms: _16  and  _17
REMARK   10  A    between atoms: _22  and  _24
REMARK   11  A    between atoms: _24  and  _25
REMARK   12  A    between atoms: _28  and  _30
REMARK   13  A    between atoms: _30  and  _31
REMARK   14  A    between atoms: _30  and  _33
REMARK   15  A    between atoms: _33  and  _34
REMARK   16  A    between atoms: _37  and  _39
REMARK   17  A    between atoms: _39  and  _40
REMARK   18  A    between atoms: _39  and  _42
REMARK   19  A    between atoms: _42  and  _43
REMARK   20  A    between atoms: _43  and  _44
REMARK   21  A    between atoms: _49  and  _51
REMARK   22  A    between atoms: _51  and  _52
REMARK   23  A    between atoms: _51  and  _54
REMARK   24  A    between atoms: _57  and  _59
REMARK   25  A    between atoms: _59  and  _60
REMARK   26  A    between atoms: _63  and  _65
REMARK   27  A    between atoms: _65  and  _66
REMARK   28  A    between atoms: _65  and  _68
REMARK   29  A    between atoms: _68  and  _69
REMARK   30  A    between atoms: _72  and  _74
REMARK   31  A    between atoms: _74  and  _75
REMARK   32  A    between atoms: _74  and  _77
REMARK   33  A    between atoms: _77  and  _78
REMARK   34  A    between atoms: _81  and  _83
REMARK   35  A    between atoms: _83  and  _84
REMARK   36  A    between atoms: _83  and  _86
REMARK   37  A    between atoms: _86  and  _87
REMARK   38  A    between atoms: _87  and  _88
REMARK   39  A    between atoms: _88  and  _89
REMARK   40  A    between atoms: _89  and  _90
REMARK   41  A    between atoms: _94  and  _96
REMARK   42  A    between atoms: _96  and  _97
REMARK   43  A    between atoms: _96  and  _99
REMARK   44  A    between atoms: _99  and  _100
REMARK   45  A    between atoms: _100  and  _101
REMARK   46  A    between atoms: _106  and  _108
REMARK   47  A    between atoms: _108  and  _109
REMARK   48  A    between atoms: _108  and  _111
REMARK   49  A    between atoms: _111  and  _112
REMARK   50  A    between atoms: _112  and  _113
REMARK   51  A    between atoms: _118  and  _120
REMARK   52  A    between atoms: _120  and  _121
REMARK   53  A    between atoms: _120  and  _123
REMARK   54  A    between atoms: _123  and  _124
REMARK   55  A    between atoms: _124  and  _125
REMARK   56  A    between atoms: _128  and  _130
REMARK   57  A    between atoms: _130  and  _131
REMARK   58  A    between atoms: _130  and  _133
REMARK   59  A    between atoms: _133  and  _134
REMARK   60  A    between atoms: _134  and  _135
REMARK   61  A    between atoms: _135  and  _136
REMARK   62  A    between atoms: _136  and  _137
REMARK   63  A    between atoms: _141  and  _143
REMARK   64  A    between atoms: _143  and  _144
REMARK   65  A    between atoms: _143  and  _146
REMARK   66  A    between atoms: _146  and  _147
REMARK   67  A    between atoms: _150  and  _152
REMARK   68  A    between atoms: _152  and  _153
REMARK   69  A    between atoms: _152  and  _155
REMARK   70  A    between atoms: _155  and  _156
REMARK   71  A    between atoms: _167  and  _168
REMARK   72  A    between atoms: _173  and  _175
REMARK   73  A    between atoms: _175  and  _176
REMARK   74  A    between atoms: _175  and  _178
REMARK   75  A    between atoms: _178  and  _179
REMARK   76  A    between atoms: _184  and  _186
REMARK   77  A    between atoms: _186  and  _187
REMARK   78  A    between atoms: _186  and  _189
REMARK   79  A    between atoms: _189  and  _190
REMARK   80  A    between atoms: _193  and  _195
REMARK   81  A    between atoms: _195  and  _196
REMARK   82  A    between atoms: _195  and  _198
REMARK   83  A    between atoms: _198  and  _199
REMARK   84  A    between atoms: _199  and  _200
REMARK   85  A    between atoms: _200  and  _201
REMARK   86  A    between atoms: _210  and  _212
REMARK   87  A    between atoms: _212  and  _213
REMARK   88  A    between atoms: _212  and  _215
REMARK   89  A    between atoms: _215  and  _216
REMARK   90  A    between atoms: _219  and  _221
REMARK   91  A    between atoms: _221  and  _222
REMARK   92  A    between atoms: _221  and  _224
REMARK   93  A    between atoms: _224  and  _225
REMARK   94  A    between atoms: _225  and  _226
REMARK   95  A    between atoms: _229  and  _231
REMARK   96  A    between atoms: _231  and  _232
REMARK   97  A    between atoms: _231  and  _234
REMARK   98  A    between atoms: _234  and  _235
REMARK   99  A    between atoms: _235  and  _236
REMARK  100  A    between atoms: _236  and  _237
REMARK  101  A    between atoms: _237  and  _238
REMARK  102  A    between atoms: _242  and  _244
REMARK  103  A    between atoms: _244  and  _245
REMARK  104  A    between atoms: _248  and  _250
REMARK  105  A    between atoms: _250  and  _251
REMARK  106  A    between atoms: _250  and  _253
REMARK  107  A    between atoms: _253  and  _254
REMARK  108  A    between atoms: _254  and  _255
REMARK  109  A    between atoms: _258  and  _260
REMARK  110  A    between atoms: _260  and  _261
REMARK  111  A    between atoms: _260  and  _263
REMARK  112  A    between atoms: _263  and  _264
REMARK  113  A    between atoms: _266  and  _268
REMARK  114  A    between atoms: _268  and  _269
REMARK  115  A    between atoms: _268  and  _271
REMARK  116  A    between atoms: _274  and  _276
REMARK  117  A    between atoms: _276  and  _277
REMARK  118  A    between atoms: _276  and  _279
REMARK  119  A    between atoms: _279  and  _280
REMARK  120  A    between atoms: _280  and  _281
REMARK  121  A    between atoms: _284  and  _286
REMARK  122  A    between atoms: _286  and  _287
REMARK  123  A    between atoms: _286  and  _289
REMARK  124  A    between atoms: _289  and  _290
REMARK  125  A    between atoms: _295  and  _297
REMARK  126  A    between atoms: _297  and  _298
REMARK  127  A    between atoms: _297  and  _300
REMARK  128  A    between atoms: _300  and  _301
REMARK  129  A    between atoms: _306  and  _308
REMARK  130  A    between atoms: _308  and  _309
REMARK  131  A    between atoms: _308  and  _311
REMARK  132  A    between atoms: _311  and  _312
REMARK  133  A    between atoms: _318  and  _320
REMARK  134  A    between atoms: _320  and  _321
REMARK  135  A    between atoms: _320  and  _323
REMARK  136  A    between atoms: _323  and  _324
REMARK  137  A    between atoms: _329  and  _330
REMARK  138  A    between atoms: _332  and  _334
REMARK  139  A    between atoms: _334  and  _335
REMARK  140  A    between atoms: _334  and  _337
REMARK  141  A    between atoms: _337  and  _338
REMARK  142  A    between atoms: _343  and  _344
REMARK  143  A    between atoms: _346  and  _348
REMARK  144  A    between atoms: _348  and  _349
REMARK  145  A    between atoms: _348  and  _351
REMARK  146  A    between atoms: _351  and  _352
REMARK  147  A    between atoms: _355  and  _357
REMARK  148  A    between atoms: _357  and  _358
REMARK  149  A    between atoms: _357  and  _360
REMARK  150  A    between atoms: _360  and  _361
REMARK  151  A    between atoms: _364  and  _366
REMARK  152  A    between atoms: _366  and  _367
REMARK  153  A    between atoms: _366  and  _369
REMARK  154  A    between atoms: _369  and  _370
REMARK  155  A    between atoms: _370  and  _371
REMARK  156  A    between atoms: _371  and  _372
REMARK  157  A    between atoms: _372  and  _373
REMARK  158  A    between atoms: _377  and  _379
REMARK  159  A    between atoms: _379  and  _380
REMARK  160  A    between atoms: _383  and  _385
REMARK  161  A    between atoms: _385  and  _386
REMARK  162  A    between atoms: _385  and  _388
REMARK  163  A    between atoms: _388  and  _389
REMARK  164  A    between atoms: _392  and  _394
REMARK  165  A    between atoms: _394  and  _395
REMARK  166  A    between atoms: _394  and  _397
REMARK  167  A    between atoms: _397  and  _398
REMARK  168  A    between atoms: _401  and  _403
REMARK  169  A    between atoms: _403  and  _404
REMARK  170  A    between atoms: _403  and  _406
REMARK  171  A    between atoms: _409  and  _411
REMARK  172  A    between atoms: _411  and  _412
REMARK  173  A    between atoms: _411  and  _414
REMARK  174  A    between atoms: _414  and  _415
REMARK  175  A    between atoms: _420  and  _422
REMARK  176  A    between atoms: _422  and  _423
REMARK  177  A    between atoms: _422  and  _425
REMARK  178  A    between atoms: _425  and  _426
REMARK  179  A    between atoms: _431  and  _433
REMARK  180  A    between atoms: _433  and  _434
REMARK  181  A    between atoms: _437  and  _438
REMARK  182  A    between atoms: _443  and  _445
REMARK  183  A    between atoms: _445  and  _446
REMARK  184  A    between atoms: _445  and  _448
REMARK  185  A    between atoms: _448  and  _449
REMARK  186  A    between atoms: _459  and  _461
REMARK  187  A    between atoms: _461  and  _462
REMARK  188  A    between atoms: _465  and  _467
REMARK  189  A    between atoms: _467  and  _468
REMARK  190  A    between atoms: _467  and  _470
REMARK  191  A    between atoms: _470  and  _471
REMARK  192  A    between atoms: _476  and  _477
REMARK  193  A    between atoms: _479  and  _481
REMARK  194  A    between atoms: _481  and  _482
REMARK  195  A    between atoms: _481  and  _484
REMARK  196  A    between atoms: _484  and  _485
REMARK  197  A    between atoms: _491  and  _493
REMARK  198  A    between atoms: _493  and  _494
REMARK  199  A    between atoms: _493  and  _496
REMARK  200  A    between atoms: _496  and  _497
REMARK  201  A    between atoms: _500  and  _502
REMARK  202  A    between atoms: _502  and  _503
REMARK  203  A    between atoms: _505  and  _507
REMARK  204  A    between atoms: _507  and  _508
REMARK  205  A    between atoms: _507  and  _510
REMARK  206  A    between atoms: _513  and  _515
REMARK  207  A    between atoms: _515  and  _516
REMARK  208  A    between atoms: _515  and  _518
REMARK  209  A    between atoms: _518  and  _519
REMARK  210  A    between atoms: _519  and  _520
REMARK  211  A    between atoms: _520  and  _521
REMARK  212  A    between atoms: _521  and  _522
REMARK  213  A    between atoms: _526  and  _528
REMARK  214  A    between atoms: _528  and  _529
REMARK  215  A    between atoms: _528  and  _531
REMARK  216  A    between atoms: _531  and  _532
REMARK  217  A    between atoms: _532  and  _533
REMARK  218  A    between atoms: _533  and  _534
REMARK  219  A    between atoms: _543  and  _545
REMARK  220  A    between atoms: _545  and  _546
REMARK  221  A    between atoms: _545  and  _548
REMARK  222  A    between atoms: _548  and  _549
REMARK  223  A    between atoms: _549  and  _550
REMARK  224  A    between atoms: _553  and  _555
REMARK  225  A    between atoms: _555  and  _556
REMARK  226  A    between atoms: _555  and  _558
REMARK  227  A    between atoms: _558  and  _559
REMARK  228  A    between atoms: _559  and  _560
REMARK  229  A    between atoms: _563  and  _564
REMARK  230  A    between atoms: _569  and  _571
REMARK  231  A    between atoms: _571  and  _572
REMARK  232  A    between atoms: _571  and  _574
REMARK  233  A    between atoms: _574  and  _575
REMARK  234  A    between atoms: _575  and  _576
REMARK  235  A    between atoms: _578  and  _580
REMARK  236  A    between atoms: _580  and  _581
REMARK  237  A    between atoms: _583  and  _585
REMARK  238  A    between atoms: _585  and  _586
REMARK  239  A    between atoms: _585  and  _588
REMARK  240  A    between atoms: _591  and  _593
REMARK  241  A    between atoms: _593  and  _594
REMARK  242  A    between atoms: _593  and  _596
REMARK  243  A    between atoms: _596  and  _597
REMARK  244  A    between atoms: _607  and  _609
REMARK  245  A    between atoms: _609  and  _610
REMARK  246  A    between atoms: _609  and  _612
REMARK  247  A    between atoms: _612  and  _613
REMARK  248  A    between atoms: _613  and  _614
REMARK  249  A    between atoms: _618  and  _619
REMARK  250  A    between atoms: _624  and  _626
REMARK  251  A    between atoms: _626  and  _627
REMARK  252  A    between atoms: _626  and  _629
REMARK  253  A    between atoms: _629  and  _630
REMARK  254  A    between atoms: _633  and  _635
REMARK  255  A    between atoms: _635  and  _636
REMARK  256  A    between atoms: _635  and  _638
REMARK  257  A    between atoms: _638  and  _639
REMARK  258  A    between atoms: _644  and  _646
REMARK  259  A    between atoms: _646  and  _647
REMARK  260  A    between atoms: _646  and  _649
REMARK  261  A    between atoms: _649  and  _650
REMARK                            x       y       z     vdW  Elec       q    Type
REMARK                         _______ _______ _______ _____ _____    ______ ____
ROOT
ATOM      1  CA  GLY A   3      24.099  -1.446  25.105  0.00  0.00    +0.176 C 
ENDROOT
BRANCH   1   2
ATOM      2  C   GLY A   3      23.125  -1.754  26.222  0.00  0.00    +0.243 C 
ATOM      3  N   VAL A   4      22.794  -0.731  26.997  0.00  0.00    -0.297 N 
ATOM      4  H   VAL A   4      23.300   0.171  26.885  0.00  0.00    +0.150 HD
ATOM      5  O   GLY A   3      22.700  -2.898  26.393  0.00  0.00    -0.273 OA
BRANCH   3   6
ATOM      6  CA  VAL A   4      21.745  -0.830  27.999  0.00  0.00    +0.149 C 
BRANCH   6   7
ATOM      7  C   VAL A   4      20.716   0.250  27.703  0.00  0.00    +0.241 C 
ATOM      8  O   VAL A   4      21.054   1.430  27.588  0.00  0.00    -0.273 OA
ATOM      9  N   LYS A   5      19.465  -0.170  27.551  0.00  0.00    -0.298 N 
ATOM     10  H   LYS A   5      19.267  -1.191  27.579  0.00  0.00    +0.150 HD
BRANCH   9  11
ATOM     11  CA  LYS A   5      18.366   0.758  27.347  0.00  0.00    +0.137 C 
BRANCH  11  12
ATOM     12  C   LYS A   5      17.543   0.804  28.619  0.00  0.00    +0.227 C 
ATOM     13  O   LYS A   5      17.030  -0.220  29.074  0.00  0.00    -0.286 OA
ENDBRANCH  11  12
BRANCH  11  14
ATOM     14  CB  LYS A   5      17.491   0.330  26.167  0.00  0.00    +0.028 C 
BRANCH  14  15
ATOM     15  CG  LYS A   5      18.234   0.183  24.850  0.00  0.00    -0.000 C 
BRANCH  15  16
ATOM     16  CD  LYS A   5      17.293   0.042  23.661  0.00  0.00    -0.024 C 
BRANCH  16  17
ATOM     17  CE  LYS A   5      16.523  -1.274  23.665  0.00  0.00    -0.086 C 
BRANCH  17  18
ATOM     18  NZ  LYS A   5      15.321  -1.223  24.531  0.00  0.00    +0.380 N 
ATOM     19  HZ1 LYS A   5      15.608  -1.015  25.509  0.00  0.00    -0.089 HD
ATOM     20  HZ2 LYS A   5      14.833  -2.141  24.499  0.00  0.00    -0.089 HD
ATOM     21  HZ3 LYS A   5      14.681  -0.477  24.190  0.00  0.00    -0.089 HD
ENDBRANCH  17  18
ENDBRANCH  16  17
ENDBRANCH  15  16
ENDBRANCH  14  15
ENDBRANCH  11  14
ENDBRANCH   9  11
ENDBRANCH   6   7
BRANCH   6  22
ATOM     22  CB  VAL A   4      22.283  -0.686  29.449  0.00  0.00    +0.027 C 
ATOM     23  CG2 VAL A   4      21.144  -0.782  30.457  0.00  0.00    +0.002 C 
ATOM     24  CG1 VAL A   4      23.344  -1.747  29.744  0.00  0.00    +0.002 C 
ENDBRANCH   6  22
ENDBRANCH   3   6
ENDBRANCH   1   2
BRANCH   1  27
ATOM     25  C   ILE A   2      26.321  -2.425  25.234  0.00  0.00    +0.241 C 
ATOM     26  O   ILE A   2      26.829  -1.377  25.632  0.00  0.00    -0.273 OA
ATOM     27  N   GLY A   3      25.036  -2.541  24.921  0.00  0.00    -0.295 N 
ATOM     28  H   GLY A   3      24.690  -3.442  24.533  0.00  0.00    +0.150 HD
BRANCH  25  29
ATOM     29  CA  ILE A   2      27.162  -3.678  25.059  0.00  0.00    +0.148 C 
BRANCH  29  31
ATOM     30  C   PHE A   1      28.494  -3.677  23.018  0.00  0.00    +0.239 C 
ATOM     31  N   ILE A   2      28.335  -3.302  24.282  0.00  0.00    -0.297 N 
ATOM     32  H   ILE A   2      29.072  -2.721  24.731  0.00  0.00    +0.150 HD
ATOM     33  O   PHE A   1      27.806  -4.550  22.476  0.00  0.00    -0.274 OA
BRANCH  30  34
ATOM     34  CA  PHE A   1      29.614  -2.979  22.252  0.00  0.00    +0.149 C 
BRANCH  34  35
ATOM     35  N   PHE A   1      30.179  -3.896  21.279  0.00  0.00    -0.238 NA
ATOM     36  H   PHE A   1      29.981  -3.749  20.269  0.00  0.00    +0.142 HD
ENDBRANCH  34  35
BRANCH  34  37
ATOM     37  CB  PHE A   1      29.042  -1.738  21.568  0.00  0.00    +0.053 C 
BRANCH  37  38
ATOM     38  CG  PHE A   1      30.063  -0.682  21.235  0.00  0.00    -0.020 A 
ATOM     39  CD2 PHE A   1      31.051  -0.315  22.151  0.00  0.00    -0.004 A 
ATOM     40  CE2 PHE A   1      31.976   0.675  21.841  0.00  0.00    -0.000 A 
ATOM     41  CZ  PHE A   1      31.917   1.315  20.605  0.00  0.00    -0.000 A 
ATOM     42  CE1 PHE A   1      30.937   0.962  19.687  0.00  0.00    -0.000 A 
ATOM     43  CD1 PHE A   1      30.016  -0.030  20.006  0.00  0.00    -0.004 A 
ENDBRANCH  37  38
ENDBRANCH  34  37
ENDBRANCH  30  34
ENDBRANCH  29  31
BRANCH  29  44
ATOM     44  CB  ILE A   2      27.524  -4.255  26.448  0.00  0.00    +0.027 C 
ATOM     45  CG2 ILE A   2      26.256  -4.506  27.284  0.00  0.00    +0.002 C 
BRANCH  44  46
ATOM     46  CG1 ILE A   2      28.328  -5.551  26.309  0.00  0.00    +0.002 C 
ATOM     47  CD1 ILE A   2      29.051  -5.949  27.589  0.00  0.00    +0.000 C 
ENDBRANCH  44  46
ENDBRANCH  29  44
ENDBRANCH  25  29
ENDBRANCH   1  27
TORSDOF 20
REMARK  Name = ../refined-set-2016/2zym/2zym_pocket.pdb
REMARK  261 active torsions:
REMARK  status: ('A' for Active; 'I' for Inactive)
REMARK    1  A    between atoms: _1  and  _3
REMARK    2  A    between atoms: _3  and  _4
REMARK    3  A    between atoms: _3  and  _6
REMARK    4  A    between atoms: _6  and  _7
REMARK    5  A    between atoms: _7  and  _8
REMARK    6  A    between atoms: _11  and  _13
REMARK    7  A    between atoms: _13  and  _14
REMARK    8  A    between atoms: _13  and  _16
REMARK    9  A    between atoms: _16  and  _17
REMARK   10  A    between atoms: _22  and  _24
REMARK   11  A    between atoms: _24  and  _25
REMARK   12  A    between atoms: _28  and  _30
REMARK   13  A    between atoms: _30  and  _31
REMARK   14  A    between atoms: _30  and  _33
REMARK   15  A    between atoms: _33  and  _34
REMARK   16  A    between atoms: _37  and  _39
REMARK   17  A    between atoms: _39  and  _40
REMARK   18  A    between atoms: _39  and  _42
REMARK   19  A    between atoms: _42  and  _43
REMARK   20  A    between atoms: _43  and  _44
REMARK   21  A    between atoms: _49  and  _51
REMARK   22  A    between atoms: _51  and  _52
REMARK   23  A    between atoms: _51  and  _54
REMARK   24  A    between atoms: _57  and  _59
REMARK   25  A    between atoms: _59  and  _60
REMARK   26  A    between atoms: _63  and  _65
REMARK   27  A    between atoms: _65  and  _66
REMARK   28  A    between atoms: _65  and  _68
REMARK   29  A    between atoms: _68  and  _69
REMARK   30  A    between atoms: _72  and  _74
REMARK   31  A    between atoms: _74  and  _75
REMARK   32  A    between atoms: _74  and  _77
REMARK   33  A    between atoms: _77  and  _78
REMARK   34  A    between atoms: _81  and  _83
REMARK   35  A    between atoms: _83  and  _84
REMARK   36  A    between atoms: _83  and  _86
REMARK   37  A    between atoms: _86  and  _87
REMARK   38  A    between atoms: _87  and  _88
REMARK   39  A    between atoms: _88  and  _89
REMARK   40  A    between atoms: _89  and  _90
REMARK   41  A    between atoms: _94  and  _96
REMARK   42  A    between atoms: _96  and  _97
REMARK   43  A    between atoms: _96  and  _99
REMARK   44  A    between atoms: _99  and  _100
REMARK   45  A    between atoms: _100  and  _101
REMARK   46  A    between atoms: _106  and  _108
REMARK   47  A    between atoms: _108  and  _109
REMARK   48  A    between atoms: _108  and  _111
REMARK   49  A    between atoms: _111  and  _112
REMARK   50  A    between atoms: _112  and  _113
REMARK   51  A    between atoms: _118  and  _120
REMARK   52  A    between atoms: _120  and  _121
REMARK   53  A    between atoms: _120  and  _123
REMARK   54  A    between atoms: _123  and  _124
REMARK   55  A    between atoms: _124  and  _125
REMARK   56  A    between atoms: _128  and  _130
REMARK   57  A    between atoms: _130  and  _131
REMARK   58  A    between atoms: _130  and  _133
REMARK   59  A    between atoms: _133  and  _134
REMARK   60  A    between atoms: _134  and  _135
REMARK   61  A    between atoms: _135  and  _136
REMARK   62  A    between atoms: _136  and  _137
REMARK   63  A    between atoms: _141  and  _143
REMARK   64  A    between atoms: _143  and  _144
REMARK   65  A    between atoms: _143  and  _146
REMARK   66  A    between atoms: _146  and  _147
REMARK   67  A    between atoms: _150  and  _152
REMARK   68  A    between atoms: _152  and  _153
REMARK   69  A    between atoms: _152  and  _155
REMARK   70  A    between atoms: _155  and  _156
REMARK   71  A    between atoms: _167  and  _168
REMARK   72  A    between atoms: _173  and  _175
REMARK   73  A    between atoms: _175  and  _176
REMARK   74  A    between atoms: _175  and  _178
REMARK   75  A    between atoms: _178  and  _179
REMARK   76  A    between atoms: _184  and  _186
REMARK   77  A    between atoms: _186  and  _187
REMARK   78  A    between atoms: _186  and  _189
REMARK   79  A    between atoms: _189  and  _190
REMARK   80  A    between atoms: _193  and  _195
REMARK   81  A    between atoms: _195  and  _196
REMARK   82  A    between atoms: _195  and  _198
REMARK   83  A    between atoms: _198  and  _199
REMARK   84  A    between atoms: _199  and  _200
REMARK   85  A    between atoms: _200  and  _201
REMARK   86  A    between atoms: _210  and  _212
REMARK   87  A    between atoms: _212  and  _213
REMARK   88  A    between atoms: _212  and  _215
REMARK   89  A    between atoms: _215  and  _216
REMARK   90  A    between atoms: _219  and  _221
REMARK   91  A    between atoms: _221  and  _222
REMARK   92  A    between atoms: _221  and  _224
REMARK   93  A    between atoms: _224  and  _225
REMARK   94  A    between atoms: _225  and  _226
REMARK   95  A    between atoms: _229  and  _231
REMARK   96  A    between atoms: _231  and  _232
REMARK   97  A    between atoms: _231  and  _234
REMARK   98  A    between atoms: _234  and  _235
REMARK   99  A    between atoms: _235  and  _236
REMARK  100  A    between atoms: _236  and  _237
REMARK  101  A    between atoms: _237  and  _238
REMARK  102  A    between atoms: _242  and  _244
REMARK  103  A    between atoms: _244  and  _245
REMARK  104  A    between atoms: _248  and  _250
REMARK  105  A    between atoms: _250  and  _251
REMARK  106  A    between atoms: _250  and  _253
REMARK  107  A    between atoms: _253  and  _254
REMARK  108  A    between atoms: _254  and  _255
REMARK  109  A    between atoms: _258  and  _260
REMARK  110  A    between atoms: _260  and  _261
REMARK  111  A    between atoms: _260  and  _263
REMARK  112  A    between atoms: _263  and  _264
REMARK  113  A    between atoms: _266  and  _268
REMARK  114  A    between atoms: _268  and  _269
REMARK  115  A    between atoms: _268  and  _271
REMARK  116  A    between atoms: _274  and  _276
REMARK  117  A    between atoms: _276  and  _277
REMARK  118  A    between atoms: _276  and  _279
REMARK  119  A    between atoms: _279  and  _280
REMARK  120  A    between atoms: _280  and  _281
REMARK  121  A    between atoms: _284  and  _286
REMARK  122  A    between atoms: _286  and  _287
REMARK  123  A    between atoms: _286  and  _289
REMARK  124  A    between atoms: _289  and  _290
REMARK  125  A    between atoms: _295  and  _297
REMARK  126  A    between atoms: _297  and  _298
REMARK  127  A    between atoms: _297  and  _300
REMARK  128  A    between atoms: _300  and  _301
REMARK  129  A    between atoms: _306  and  _308
REMARK  130  A    between atoms: _308  and  _309
REMARK  131  A    between atoms: _308  and  _311
REMARK  132  A    between atoms: _311  and  _312
REMARK  133  A    between atoms: _318  and  _320
REMARK  134  A    between atoms: _320  and  _321
REMARK  135  A    between atoms: _320  and  _323
REMARK  136  A    between atoms: _323  and  _324
REMARK  137  A    between atoms: _329  and  _330
REMARK  138  A    between atoms: _332  and  _334
REMARK  139  A    between atoms: _334  and  _335
REMARK  140  A    between atoms: _334  and  _337
REMARK  141  A    between atoms: _337  and  _338
REMARK  142  A    between atoms: _343  and  _344
REMARK  143  A    between atoms: _346  and  _348
REMARK  144  A    between atoms: _348  and  _349
REMARK  145  A    between atoms: _348  and  _351
REMARK  146  A    between atoms: _351  and  _352
REMARK  147  A    between atoms: _355  and  _357
REMARK  148  A    between atoms: _357  and  _358
REMARK  149  A    between atoms: _357  and  _360
REMARK  150  A    between atoms: _360  and  _361
REMARK  151  A    between atoms: _364  and  _366
REMARK  152  A    between atoms: _366  and  _367
REMARK  153  A    between atoms: _366  and  _369
REMARK  154  A    between atoms: _369  and  _370
REMARK  155  A    between atoms: _370  and  _371
REMARK  156  A    between atoms: _371  and  _372
REMARK  157  A    between atoms: _372  and  _373
REMARK  158  A    between atoms: _377  and  _379
REMARK  159  A    between atoms: _379  and  _380
REMARK  160  A    between atoms: _383  and  _385
REMARK  161  A    between atoms: _385  and  _386
REMARK  162  A    between atoms: _385  and  _388
REMARK  163  A    between atoms: _388  and  _389
REMARK  164  A    between atoms: _392  and  _394
REMARK  165  A    between atoms: _394  and  _395
REMARK  166  A    between atoms: _394  and  _397
REMARK  167  A    between atoms: _397  and  _398
REMARK  168  A    between atoms: _401  and  _403
REMARK  169  A    between atoms: _403  and  _404
REMARK  170  A    between atoms: _403  and  _406
REMARK  171  A    between atoms: _409  and  _411
REMARK  172  A    between atoms: _411  and  _412
REMARK  173  A    between atoms: _411  and  _414
REMARK  174  A    between atoms: _414  and  _415
REMARK  175  A    between atoms: _420  and  _422
REMARK  176  A    between atoms: _422  and  _423
REMARK  177  A    between atoms: _422  and  _425
REMARK  178  A    between atoms: _425  and  _426
REMARK  179  A    between atoms: _431  and  _433
REMARK  180  A    between atoms: _433  and  _434
REMARK  181  A    between atoms: _437  and  _438
REMARK  182  A    between atoms: _443  and  _445
REMARK  183  A    between atoms: _445  and  _446
REMARK  184  A    between atoms: _445  and  _448
REMARK  185  A    between atoms: _448  and  _449
REMARK  186  A    between atoms: _459  and  _461
REMARK  187  A    between atoms: _461  and  _462
REMARK  188  A    between atoms: _465  and  _467
REMARK  189  A    between atoms: _467  and  _468
REMARK  190  A    between atoms: _467  and  _470
REMARK  191  A    between atoms: _470  and  _471
REMARK  192  A    between atoms: _476  and  _477
REMARK  193  A    between atoms: _479  and  _481
REMARK  194  A    between atoms: _481  and  _482
REMARK  195  A    between atoms: _481  and  _484
REMARK  196  A    between atoms: _484  and  _485
REMARK  197  A    between atoms: _491  and  _493
REMARK  198  A    between atoms: _493  and  _494
REMARK  199  A    between atoms: _493  and  _496
REMARK  200  A    between atoms: _496  and  _497
REMARK  201  A    between atoms: _500  and  _502
REMARK  202  A    between atoms: _502  and  _503
REMARK  203  A    between atoms: _505  and  _507
REMARK  204  A    between atoms: _507  and  _508
REMARK  205  A    between atoms: _507  and  _510
REMARK  206  A    between atoms: _513  and  _515
REMARK  207  A    between atoms: _515  and  _516
REMARK  208  A    between atoms: _515  and  _518
REMARK  209  A    between atoms: _518  and  _519
REMARK  210  A    between atoms: _519  and  _520
REMARK  211  A    between atoms: _520  and  _521
REMARK  212  A    between atoms: _521  and  _522
REMARK  213  A    between atoms: _526  and  _528
REMARK  214  A    between atoms: _528  and  _529
REMARK  215  A    between atoms: _528  and  _531
REMARK  216  A    between atoms: _531  and  _532
REMARK  217  A    between atoms: _532  and  _533
REMARK  218  A    between atoms: _533  and  _534
REMARK  219  A    between atoms: _543  and  _545
REMARK  220  A    between atoms: _545  and  _546
REMARK  221  A    between atoms: _545  and  _548
REMARK  222  A    between atoms: _548  and  _549
REMARK  223  A    between atoms: _549  and  _550
REMARK  224  A    between atoms: _553  and  _555
REMARK  225  A    between atoms: _555  and  _556
REMARK  226  A    between atoms: _555  and  _558
REMARK  227  A    between atoms: _558  and  _559
REMARK  228  A    between atoms: _559  and  _560
REMARK  229  A    between atoms: _563  and  _564
REMARK  230  A    between atoms: _569  and  _571
REMARK  231  A    between atoms: _571  and  _572
REMARK  232  A    between atoms: _571  and  _574
REMARK  233  A    between atoms: _574  and  _575
REMARK  234  A    between atoms: _575  and  _576
REMARK  235  A    between atoms: _578  and  _580
REMARK  236  A    between atoms: _580  and  _581
REMARK  237  A    between atoms: _583  and  _585
REMARK  238  A    between atoms: _585  and  _586
REMARK  239  A    between atoms: _585  and  _588
REMARK  240  A    between atoms: _591  and  _593
REMARK  241  A    between atoms: _593  and  _594
REMARK  242  A    between atoms: _593  and  _596
REMARK  243  A    between atoms: _596  and  _597
REMARK  244  A    between atoms: _607  and  _609
REMARK  245  A    between atoms: _609  and  _610
REMARK  246  A    between atoms: _609  and  _612
REMARK  247  A    between atoms: _612  and  _613
REMARK  248  A    between atoms: _613  and  _614
REMARK  249  A    between atoms: _618  and  _619
REMARK  250  A    between atoms: _624  and  _626
REMARK  251  A    between atoms: _626  and  _627
REMARK  252  A    between atoms: _626  and  _629
REMARK  253  A    between atoms: _629  and  _630
REMARK  254  A    between atoms: _633  and  _635
REMARK  255  A    between atoms: _635  and  _636
REMARK  256  A    between atoms: _635  and  _638
REMARK  257  A    between atoms: _638  and  _639
REMARK  258  A    between atoms: _644  and  _646
REMARK  259  A    between atoms: _646  and  _647
REMARK  260  A    between atoms: _646  and  _649
REMARK  261  A    between atoms: _649  and  _650
REMARK                            x       y       z     vdW  Elec       q    Type
REMARK                         _______ _______ _______ _____ _____    ______ ____
ROOT
ATOM      1  NE  ARG A   1      10.526  -3.167  26.894  0.00  0.00    -0.265 N 
ATOM      2  HE  ARG A   1       9.788  -2.438  26.819  0.00  0.00    +0.259 HD
ATOM      3  CZ  ARG A   1      11.519  -3.135  26.006  0.00  0.00    +0.342 C 
ATOM      4  NH2 ARG A   1      12.497  -4.031  26.047  0.00  0.00    -0.292 N 
ATOM      5 HH21 ARG A   1      12.495  -4.770  26.779  0.00  0.00    +0.255 HD
ATOM      6 HH22 ARG A   1      13.266  -3.994  25.348  0.00  0.00    +0.255 HD
ATOM      7  NH1 ARG A   1      11.530  -2.203  25.062  0.00  0.00    -0.292 N 
ATOM      8 HH11 ARG A   1      10.765  -1.500  25.016  0.00  0.00    +0.255 HD
ATOM      9 HH12 ARG A   1      12.304  -2.175  24.367  0.00  0.00    +0.255 HD
ENDROOT
BRANCH   1  10
ATOM     10  CD  ARG A   1      10.399  -4.154  27.968  0.00  0.00    +0.174 C 
BRANCH  10  11
ATOM     11  CG  ARG A   1       9.773  -5.432  27.425  0.00  0.00    +0.045 C 
BRANCH  11  12
ATOM     12  CB  ARG A   1       9.257  -6.377  28.501  0.00  0.00    +0.029 C 
BRANCH  12  13
ATOM     13  CA  ARG A   1       8.461  -7.545  27.912  0.00  0.00    +0.133 C 
BRANCH  13  14
ATOM     14  N   ARG A   1       7.772  -8.313  28.948  0.00  0.00    -0.239 NA
ATOM     15  H   ARG A   1       7.918  -8.063  29.947  0.00  0.00    +0.142 HD
ENDBRANCH  13  14
BRANCH  13  16
ATOM     16  C   ARG A   1       9.362  -8.439  27.071  0.00  0.00    +0.224 C 
ATOM     17  O   ARG A   1       9.387  -8.323  25.848  0.00  0.00    -0.287 OA
ENDBRANCH  13  16
ENDBRANCH  12  13
ENDBRANCH  11  12
ENDBRANCH  10  11
ENDBRANCH   1  10
TORSDOF 6
REMARK  Name = ../refined-set-2016/2zym/2zym_pocket.pdb
REMARK  261 active torsions:
REMARK  status: ('A' for Active; 'I' for Inactive)
REMARK    1  A    between atoms: _1  and  _3
REMARK    2  A    between atoms: _3  and  _4
REMARK    3  A    between atoms: _3  and  _6
REMARK    4  A    between atoms: _6  and  _7
REMARK    5  A    between atoms: _7  and  _8
REMARK    6  A    between atoms: _11  and  _13
REMARK    7  A    between atoms: _13  and  _14
REMARK    8  A    between atoms: _13  and  _16
REMARK    9  A    between atoms: _16  and  _17
REMARK   10  A    between atoms: _22  and  _24
REMARK   11  A    between atoms: _24  and  _25
REMARK   12  A    between atoms: _28  and  _30
REMARK   13  A    between atoms: _30  and  _31
REMARK   14  A    between atoms: _30  and  _33
REMARK   15  A    between atoms: _33  and  _34
REMARK   16  A    between atoms: _37  and  _39
REMARK   17  A    between atoms: _39  and  _40
REMARK   18  A    between atoms: _39  and  _42
REMARK   19  A    between atoms: _42  and  _43
REMARK   20  A    between atoms: _43  and  _44
REMARK   21  A    between atoms: _49  and  _51
REMARK   22  A    between atoms: _51  and  _52
REMARK   23  A    between atoms: _51  and  _54
REMARK   24  A    between atoms: _57  and  _59
REMARK   25  A    between atoms: _59  and  _60
REMARK   26  A    between atoms: _63  and  _65
REMARK   27  A    between atoms: _65  and  _66
REMARK   28  A    between atoms: _65  and  _68
REMARK   29  A    between atoms: _68  and  _69
REMARK   30  A    between atoms: _72  and  _74
REMARK   31  A    between atoms: _74  and  _75
REMARK   32  A    between atoms: _74  and  _77
REMARK   33  A    between atoms: _77  and  _78
REMARK   34  A    between atoms: _81  and  _83
REMARK   35  A    between atoms: _83  and  _84
REMARK   36  A    between atoms: _83  and  _86
REMARK   37  A    between atoms: _86  and  _87
REMARK   38  A    between atoms: _87  and  _88
REMARK   39  A    between atoms: _88  and  _89
REMARK   40  A    between atoms: _89  and  _90
REMARK   41  A    between atoms: _94  and  _96
REMARK   42  A    between atoms: _96  and  _97
REMARK   43  A    between atoms: _96  and  _99
REMARK   44  A    between atoms: _99  and  _100
REMARK   45  A    between atoms: _100  and  _101
REMARK   46  A    between atoms: _106  and  _108
REMARK   47  A    between atoms: _108  and  _109
REMARK   48  A    between atoms: _108  and  _111
REMARK   49  A    between atoms: _111  and  _112
REMARK   50  A    between atoms: _112  and  _113
REMARK   51  A    between atoms: _118  and  _120
REMARK   52  A    between atoms: _120  and  _121
REMARK   53  A    between atoms: _120  and  _123
REMARK   54  A    between atoms: _123  and  _124
REMARK   55  A    between atoms: _124  and  _125
REMARK   56  A    between atoms: _128  and  _130
REMARK   57  A    between atoms: _130  and  _131
REMARK   58  A    between atoms: _130  and  _133
REMARK   59  A    between atoms: _133  and  _134
REMARK   60  A    between atoms: _134  and  _135
REMARK   61  A    between atoms: _135  and  _136
REMARK   62  A    between atoms: _136  and  _137
REMARK   63  A    between atoms: _141  and  _143
REMARK   64  A    between atoms: _143  and  _144
REMARK   65  A    between atoms: _143  and  _146
REMARK   66  A    between atoms: _146  and  _147
REMARK   67  A    between atoms: _150  and  _152
REMARK   68  A    between atoms: _152  and  _153
REMARK   69  A    between atoms: _152  and  _155
REMARK   70  A    between atoms: _155  and  _156
REMARK   71  A    between atoms: _167  and  _168
REMARK   72  A    between atoms: _173  and  _175
REMARK   73  A    between atoms: _175  and  _176
REMARK   74  A    between atoms: _175  and  _178
REMARK   75  A    between atoms: _178  and  _179
REMARK   76  A    between atoms: _184  and  _186
REMARK   77  A    between atoms: _186  and  _187
REMARK   78  A    between atoms: _186  and  _189
REMARK   79  A    between atoms: _189  and  _190
REMARK   80  A    between atoms: _193  and  _195
REMARK   81  A    between atoms: _195  and  _196
REMARK   82  A    between atoms: _195  and  _198
REMARK   83  A    between atoms: _198  and  _199
REMARK   84  A    between atoms: _199  and  _200
REMARK   85  A    between atoms: _200  and  _201
REMARK   86  A    between atoms: _210  and  _212
REMARK   87  A    between atoms: _212  and  _213
REMARK   88  A    between atoms: _212  and  _215
REMARK   89  A    between atoms: _215  and  _216
REMARK   90  A    between atoms: _219  and  _221
REMARK   91  A    between atoms: _221  and  _222
REMARK   92  A    between atoms: _221  and  _224
REMARK   93  A    between atoms: _224  and  _225
REMARK   94  A    between atoms: _225  and  _226
REMARK   95  A    between atoms: _229  and  _231
REMARK   96  A    between atoms: _231  and  _232
REMARK   97  A    between atoms: _231  and  _234
REMARK   98  A    between atoms: _234  and  _235
REMARK   99  A    between atoms: _235  and  _236
REMARK  100  A    between atoms: _236  and  _237
REMARK  101  A    between atoms: _237  and  _238
REMARK  102  A    between atoms: _242  and  _244
REMARK  103  A    between atoms: _244  and  _245
REMARK  104  A    between atoms: _248  and  _250
REMARK  105  A    between atoms: _250  and  _251
REMARK  106  A    between atoms: _250  and  _253
REMARK  107  A    between atoms: _253  and  _254
REMARK  108  A    between atoms: _254  and  _255
REMARK  109  A    between atoms: _258  and  _260
REMARK  110  A    between atoms: _260  and  _261
REMARK  111  A    between atoms: _260  and  _263
REMARK  112  A    between atoms: _263  and  _264
REMARK  113  A    between atoms: _266  and  _268
REMARK  114  A    between atoms: _268  and  _269
REMARK  115  A    between atoms: _268  and  _271
REMARK  116  A    between atoms: _274  and  _276
REMARK  117  A    between atoms: _276  and  _277
REMARK  118  A    between atoms: _276  and  _279
REMARK  119  A    between atoms: _279  and  _280
REMARK  120  A    between atoms: _280  and  _281
REMARK  121  A    between atoms: _284  and  _286
REMARK  122  A    between atoms: _286  and  _287
REMARK  123  A    between atoms: _286  and  _289
REMARK  124  A    between atoms: _289  and  _290
REMARK  125  A    between atoms: _295  and  _297
REMARK  126  A    between atoms: _297  and  _298
REMARK  127  A    between atoms: _297  and  _300
REMARK  128  A    between atoms: _300  and  _301
REMARK  129  A    between atoms: _306  and  _308
REMARK  130  A    between atoms: _308  and  _309
REMARK  131  A    between atoms: _308  and  _311
REMARK  132  A    between atoms: _311  and  _312
REMARK  133  A    between atoms: _318  and  _320
REMARK  134  A    between atoms: _320  and  _321
REMARK  135  A    between atoms: _320  and  _323
REMARK  136  A    between atoms: _323  and  _324
REMARK  137  A    between atoms: _329  and  _330
REMARK  138  A    between atoms: _332  and  _334
REMARK  139  A    between atoms: _334  and  _335
REMARK  140  A    between atoms: _334  and  _337
REMARK  141  A    between atoms: _337  and  _338
REMARK  142  A    between atoms: _343  and  _344
REMARK  143  A    between atoms: _346  and  _348
REMARK  144  A    between atoms: _348  and  _349
REMARK  145  A    between atoms: _348  and  _351
REMARK  146  A    between atoms: _351  and  _352
REMARK  147  A    between atoms: _355  and  _357
REMARK  148  A    between atoms: _357  and  _358
REMARK  149  A    between atoms: _357  and  _360
REMARK  150  A    between atoms: _360  and  _361
REMARK  151  A    between atoms: _364  and  _366
REMARK  152  A    between atoms: _366  and  _367
REMARK  153  A    between atoms: _366  and  _369
REMARK  154  A    between atoms: _369  and  _370
REMARK  155  A    between atoms: _370  and  _371
REMARK  156  A    between atoms: _371  and  _372
REMARK  157  A    between atoms: _372  and  _373
REMARK  158  A    between atoms: _377  and  _379
REMARK  159  A    between atoms: _379  and  _380
REMARK  160  A    between atoms: _383  and  _385
REMARK  161  A    between atoms: _385  and  _386
REMARK  162  A    between atoms: _385  and  _388
REMARK  163  A    between atoms: _388  and  _389
REMARK  164  A    between atoms: _392  and  _394
REMARK  165  A    between atoms: _394  and  _395
REMARK  166  A    between atoms: _394  and  _397
REMARK  167  A    between atoms: _397  and  _398
REMARK  168  A    between atoms: _401  and  _403
REMARK  169  A    between atoms: _403  and  _404
REMARK  170  A    between atoms: _403  and  _406
REMARK  171  A    between atoms: _409  and  _411
REMARK  172  A    between atoms: _411  and  _412
REMARK  173  A    between atoms: _411  and  _414
REMARK  174  A    between atoms: _414  and  _415
REMARK  175  A    between atoms: _420  and  _422
REMARK  176  A    between atoms: _422  and  _423
REMARK  177  A    between atoms: _422  and  _425
REMARK  178  A    between atoms: _425  and  _426
REMARK  179  A    between atoms: _431  and  _433
REMARK  180  A    between atoms: _433  and  _434
REMARK  181  A    between atoms: _437  and  _438
REMARK  182  A    between atoms: _443  and  _445
REMARK  183  A    between atoms: _445  and  _446
REMARK  184  A    between atoms: _445  and  _448
REMARK  185  A    between atoms: _448  and  _449
REMARK  186  A    between atoms: _459  and  _461
REMARK  187  A    between atoms: _461  and  _462
REMARK  188  A    between atoms: _465  and  _467
REMARK  189  A    between atoms: _467  and  _468
REMARK  190  A    between atoms: _467  and  _470
REMARK  191  A    between atoms: _470  and  _471
REMARK  192  A    between atoms: _476  and  _477
REMARK  193  A    between atoms: _479  and  _481
REMARK  194  A    between atoms: _481  and  _482
REMARK  195  A    between atoms: _481  and  _484
REMARK  196  A    between atoms: _484  and  _485
REMARK  197  A    between atoms: _491  and  _493
REMARK  198  A    between atoms: _493  and  _494
REMARK  199  A    between atoms: _493  and  _496
REMARK  200  A    between atoms: _496  and  _497
REMARK  201  A    between atoms: _500  and  _502
REMARK  202  A    between atoms: _502  and  _503
REMARK  203  A    between atoms: _505  and  _507
REMARK  204  A    between atoms: _507  and  _508
REMARK  205  A    between atoms: _507  and  _510
REMARK  206  A    between atoms: _513  and  _515
REMARK  207  A    between atoms: _515  and  _516
REMARK  208  A    between atoms: _515  and  _518
REMARK  209  A    between atoms: _518  and  _519
REMARK  210  A    between atoms: _519  and  _520
REMARK  211  A    between atoms: _520  and  _521
REMARK  212  A    between atoms: _521  and  _522
REMARK  213  A    between atoms: _526  and  _528
REMARK  214  A    between atoms: _528  and  _529
REMARK  215  A    between atoms: _528  and  _531
REMARK  216  A    between atoms: _531  and  _532
REMARK  217  A    between atoms: _532  and  _533
REMARK  218  A    between atoms: _533  and  _534
REMARK  219  A    between atoms: _543  and  _545
REMARK  220  A    between atoms: _545  and  _546
REMARK  221  A    between atoms: _545  and  _548
REMARK  222  A    between atoms: _548  and  _549
REMARK  223  A    between atoms: _549  and  _550
REMARK  224  A    between atoms: _553  and  _555
REMARK  225  A    between atoms: _555  and  _556
REMARK  226  A    between atoms: _555  and  _558
REMARK  227  A    between atoms: _558  and  _559
REMARK  228  A    between atoms: _559  and  _560
REMARK  229  A    between atoms: _563  and  _564
REMARK  230  A    between atoms: _569  and  _571
REMARK  231  A    between atoms: _571  and  _572
REMARK  232  A    between atoms: _571  and  _574
REMARK  233  A    between atoms: _574  and  _575
REMARK  234  A    between atoms: _575  and  _576
REMARK  235  A    between atoms: _578  and  _580
REMARK  236  A    between atoms: _580  and  _581
REMARK  237  A    between atoms: _583  and  _585
REMARK  238  A    between atoms: _585  and  _586
REMARK  239  A    between atoms: _585  and  _588
REMARK  240  A    between atoms: _591  and  _593
REMARK  241  A    between atoms: _593  and  _594
REMARK  242  A    between atoms: _593  and  _596
REMARK  243  A    between atoms: _596  and  _597
REMARK  244  A    between atoms: _607  and  _609
REMARK  245  A    between atoms: _609  and  _610
REMARK  246  A    between atoms: _609  and  _612
REMARK  247  A    between atoms: _612  and  _613
REMARK  248  A    between atoms: _613  and  _614
REMARK  249  A    between atoms: _618  and  _619
REMARK  250  A    between atoms: _624  and  _626
REMARK  251  A    between atoms: _626  and  _627
REMARK  252  A    between atoms: _626  and  _629
REMARK  253  A    between atoms: _629  and  _630
REMARK  254  A    between atoms: _633  and  _635
REMARK  255  A    between atoms: _635  and  _636
REMARK  256  A    between atoms: _635  and  _638
REMARK  257  A    between atoms: _638  and  _639
REMARK  258  A    between atoms: _644  and  _646
REMARK  259  A    between atoms: _646  and  _647
REMARK  260  A    between atoms: _646  and  _649
REMARK  261  A    between atoms: _649  and  _650
REMARK                            x       y       z     vdW  Elec       q    Type
REMARK                         _______ _______ _______ _____ _____    ______ ____
ROOT
ATOM      1  CA  GLU A   1      14.664  -8.034  24.346  0.00  0.00    +0.134 C 
ENDROOT
BRANCH   1   2
ATOM      2  N   GLU A   1      13.539  -8.789  23.802  0.00  0.00    -0.239 NA
ATOM      3  H   GLU A   1      12.576  -8.413  23.914  0.00  0.00    +0.142 HD
ENDBRANCH   1   2
BRANCH   1   4
ATOM      4  C   GLU A   1      14.992  -8.487  25.763  0.00  0.00    +0.224 C 
ATOM      5  O   GLU A   1      14.106  -8.579  26.621  0.00  0.00    -0.287 OA
ENDBRANCH   1   4
BRANCH   1   6
ATOM      6  CB  GLU A   1      14.393  -6.526  24.280  0.00  0.00    +0.037 C 
BRANCH   6   7
ATOM      7  CG  GLU A   1      14.150  -6.015  22.852  0.00  0.00    +0.116 C 
BRANCH   7   8
ATOM      8  CD  GLU A   1      14.347  -4.521  22.715  0.00  0.00    +0.365 C 
ATOM      9  OE2 GLU A   1      13.689  -3.758  23.452  0.00  0.00    -0.246 OA
ATOM     10  OE1 GLU A   1      15.162  -4.108  21.864  0.00  0.00    -0.246 OA
ENDBRANCH   7   8
ENDBRANCH   6   7
ENDBRANCH   1   6
TORSDOF 5
REMARK  Name = ../refined-set-2016/2zym/2zym_pocket.pdb
REMARK  261 active torsions:
REMARK  status: ('A' for Active; 'I' for Inactive)
REMARK    1  A    between atoms: _1  and  _3
REMARK    2  A    between atoms: _3  and  _4
REMARK    3  A    between atoms: _3  and  _6
REMARK    4  A    between atoms: _6  and  _7
REMARK    5  A    between atoms: _7  and  _8
REMARK    6  A    between atoms: _11  and  _13
REMARK    7  A    between atoms: _13  and  _14
REMARK    8  A    between atoms: _13  and  _16
REMARK    9  A    between atoms: _16  and  _17
REMARK   10  A    between atoms: _22  and  _24
REMARK   11  A    between atoms: _24  and  _25
REMARK   12  A    between atoms: _28  and  _30
REMARK   13  A    between atoms: _30  and  _31
REMARK   14  A    between atoms: _30  and  _33
REMARK   15  A    between atoms: _33  and  _34
REMARK   16  A    between atoms: _37  and  _39
REMARK   17  A    between atoms: _39  and  _40
REMARK   18  A    between atoms: _39  and  _42
REMARK   19  A    between atoms: _42  and  _43
REMARK   20  A    between atoms: _43  and  _44
REMARK   21  A    between atoms: _49  and  _51
REMARK   22  A    between atoms: _51  and  _52
REMARK   23  A    between atoms: _51  and  _54
REMARK   24  A    between atoms: _57  and  _59
REMARK   25  A    between atoms: _59  and  _60
REMARK   26  A    between atoms: _63  and  _65
REMARK   27  A    between atoms: _65  and  _66
REMARK   28  A    between atoms: _65  and  _68
REMARK   29  A    between atoms: _68  and  _69
REMARK   30  A    between atoms: _72  and  _74
REMARK   31  A    between atoms: _74  and  _75
REMARK   32  A    between atoms: _74  and  _77
REMARK   33  A    between atoms: _77  and  _78
REMARK   34  A    between atoms: _81  and  _83
REMARK   35  A    between atoms: _83  and  _84
REMARK   36  A    between atoms: _83  and  _86
REMARK   37  A    between atoms: _86  and  _87
REMARK   38  A    between atoms: _87  and  _88
REMARK   39  A    between atoms: _88  and  _89
REMARK   40  A    between atoms: _89  and  _90
REMARK   41  A    between atoms: _94  and  _96
REMARK   42  A    between atoms: _96  and  _97
REMARK   43  A    between atoms: _96  and  _99
REMARK   44  A    between atoms: _99  and  _100
REMARK   45  A    between atoms: _100  and  _101
REMARK   46  A    between atoms: _106  and  _108
REMARK   47  A    between atoms: _108  and  _109
REMARK   48  A    between atoms: _108  and  _111
REMARK   49  A    between atoms: _111  and  _112
REMARK   50  A    between atoms: _112  and  _113
REMARK   51  A    between atoms: _118  and  _120
REMARK   52  A    between atoms: _120  and  _121
REMARK   53  A    between atoms: _120  and  _123
REMARK   54  A    between atoms: _123  and  _124
REMARK   55  A    between atoms: _124  and  _125
REMARK   56  A    between atoms: _128  and  _130
REMARK   57  A    between atoms: _130  and  _131
REMARK   58  A    between atoms: _130  and  _133
REMARK   59  A    between atoms: _133  and  _134
REMARK   60  A    between atoms: _134  and  _135
REMARK   61  A    between atoms: _135  and  _136
REMARK   62  A    between atoms: _136  and  _137
REMARK   63  A    between atoms: _141  and  _143
REMARK   64  A    between atoms: _143  and  _144
REMARK   65  A    between atoms: _143  and  _146
REMARK   66  A    between atoms: _146  and  _147
REMARK   67  A    between atoms: _150  and  _152
REMARK   68  A    between atoms: _152  and  _153
REMARK   69  A    between atoms: _152  and  _155
REMARK   70  A    between atoms: _155  and  _156
REMARK   71  A    between atoms: _167  and  _168
REMARK   72  A    between atoms: _173  and  _175
REMARK   73  A    between atoms: _175  and  _176
REMARK   74  A    between atoms: _175  and  _178
REMARK   75  A    between atoms: _178  and  _179
REMARK   76  A    between atoms: _184  and  _186
REMARK   77  A    between atoms: _186  and  _187
REMARK   78  A    between atoms: _186  and  _189
REMARK   79  A    between atoms: _189  and  _190
REMARK   80  A    between atoms: _193  and  _195
REMARK   81  A    between atoms: _195  and  _196
REMARK   82  A    between atoms: _195  and  _198
REMARK   83  A    between atoms: _198  and  _199
REMARK   84  A    between atoms: _199  and  _200
REMARK   85  A    between atoms: _200  and  _201
REMARK   86  A    between atoms: _210  and  _212
REMARK   87  A    between atoms: _212  and  _213
REMARK   88  A    between atoms: _212  and  _215
REMARK   89  A    between atoms: _215  and  _216
REMARK   90  A    between atoms: _219  and  _221
REMARK   91  A    between atoms: _221  and  _222
REMARK   92  A    between atoms: _221  and  _224
REMARK   93  A    between atoms: _224  and  _225
REMARK   94  A    between atoms: _225  and  _226
REMARK   95  A    between atoms: _229  and  _231
REMARK   96  A    between atoms: _231  and  _232
REMARK   97  A    between atoms: _231  and  _234
REMARK   98  A    between atoms: _234  and  _235
REMARK   99  A    between atoms: _235  and  _236
REMARK  100  A    between atoms: _236  and  _237
REMARK  101  A    between atoms: _237  and  _238
REMARK  102  A    between atoms: _242  and  _244
REMARK  103  A    between atoms: _244  and  _245
REMARK  104  A    between atoms: _248  and  _250
REMARK  105  A    between atoms: _250  and  _251
REMARK  106  A    between atoms: _250  and  _253
REMARK  107  A    between atoms: _253  and  _254
REMARK  108  A    between atoms: _254  and  _255
REMARK  109  A    between atoms: _258  and  _260
REMARK  110  A    between atoms: _260  and  _261
REMARK  111  A    between atoms: _260  and  _263
REMARK  112  A    between atoms: _263  and  _264
REMARK  113  A    between atoms: _266  and  _268
REMARK  114  A    between atoms: _268  and  _269
REMARK  115  A    between atoms: _268  and  _271
REMARK  116  A    between atoms: _274  and  _276
REMARK  117  A    between atoms: _276  and  _277
REMARK  118  A    between atoms: _276  and  _279
REMARK  119  A    between atoms: _279  and  _280
REMARK  120  A    between atoms: _280  and  _281
REMARK  121  A    between atoms: _284  and  _286
REMARK  122  A    between atoms: _286  and  _287
REMARK  123  A    between atoms: _286  and  _289
REMARK  124  A    between atoms: _289  and  _290
REMARK  125  A    between atoms: _295  and  _297
REMARK  126  A    between atoms: _297  and  _298
REMARK  127  A    between atoms: _297  and  _300
REMARK  128  A    between atoms: _300  and  _301
REMARK  129  A    between atoms: _306  and  _308
REMARK  130  A    between atoms: _308  and  _309
REMARK  131  A    between atoms: _308  and  _311
REMARK  132  A    between atoms: _311  and  _312
REMARK  133  A    between atoms: _318  and  _320
REMARK  134  A    between atoms: _320  and  _321
REMARK  135  A    between atoms: _320  and  _323
REMARK  136  A    between atoms: _323  and  _324
REMARK  137  A    between atoms: _329  and  _330
REMARK  138  A    between atoms: _332  and  _334
REMARK  139  A    between atoms: _334  and  _335
REMARK  140  A    between atoms: _334  and  _337
REMARK  141  A    between atoms: _337  and  _338
REMARK  142  A    between atoms: _343  and  _344
REMARK  143  A    between atoms: _346  and  _348
REMARK  144  A    between atoms: _348  and  _349
REMARK  145  A    between atoms: _348  and  _351
REMARK  146  A    between atoms: _351  and  _352
REMARK  147  A    between atoms: _355  and  _357
REMARK  148  A    between atoms: _357  and  _358
REMARK  149  A    between atoms: _357  and  _360
REMARK  150  A    between atoms: _360  and  _361
REMARK  151  A    between atoms: _364  and  _366
REMARK  152  A    between atoms: _366  and  _367
REMARK  153  A    between atoms: _366  and  _369
REMARK  154  A    between atoms: _369  and  _370
REMARK  155  A    between atoms: _370  and  _371
REMARK  156  A    between atoms: _371  and  _372
REMARK  157  A    between atoms: _372  and  _373
REMARK  158  A    between atoms: _377  and  _379
REMARK  159  A    between atoms: _379  and  _380
REMARK  160  A    between atoms: _383  and  _385
REMARK  161  A    between atoms: _385  and  _386
REMARK  162  A    between atoms: _385  and  _388
REMARK  163  A    between atoms: _388  and  _389
REMARK  164  A    between atoms: _392  and  _394
REMARK  165  A    between atoms: _394  and  _395
REMARK  166  A    between atoms: _394  and  _397
REMARK  167  A    between atoms: _397  and  _398
REMARK  168  A    between atoms: _401  and  _403
REMARK  169  A    between atoms: _403  and  _404
REMARK  170  A    between atoms: _403  and  _406
REMARK  171  A    between atoms: _409  and  _411
REMARK  172  A    between atoms: _411  and  _412
REMARK  173  A    between atoms: _411  and  _414
REMARK  174  A    between atoms: _414  and  _415
REMARK  175  A    between atoms: _420  and  _422
REMARK  176  A    between atoms: _422  and  _423
REMARK  177  A    between atoms: _422  and  _425
REMARK  178  A    between atoms: _425  and  _426
REMARK  179  A    between atoms: _431  and  _433
REMARK  180  A    between atoms: _433  and  _434
REMARK  181  A    between atoms: _437  and  _438
REMARK  182  A    between atoms: _443  and  _445
REMARK  183  A    between atoms: _445  and  _446
REMARK  184  A    between atoms: _445  and  _448
REMARK  185  A    between atoms: _448  and  _449
REMARK  186  A    between atoms: _459  and  _461
REMARK  187  A    between atoms: _461  and  _462
REMARK  188  A    between atoms: _465  and  _467
REMARK  189  A    between atoms: _467  and  _468
REMARK  190  A    between atoms: _467  and  _470
REMARK  191  A    between atoms: _470  and  _471
REMARK  192  A    between atoms: _476  and  _477
REMARK  193  A    between atoms: _479  and  _481
REMARK  194  A    between atoms: _481  and  _482
REMARK  195  A    between atoms: _481  and  _484
REMARK  196  A    between atoms: _484  and  _485
REMARK  197  A    between atoms: _491  and  _493
REMARK  198  A    between atoms: _493  and  _494
REMARK  199  A    between atoms: _493  and  _496
REMARK  200  A    between atoms: _496  and  _497
REMARK  201  A    between atoms: _500  and  _502
REMARK  202  A    between atoms: _502  and  _503
REMARK  203  A    between atoms: _505  and  _507
REMARK  204  A    between atoms: _507  and  _508
REMARK  205  A    between atoms: _507  and  _510
REMARK  206  A    between atoms: _513  and  _515
REMARK  207  A    between atoms: _515  and  _516
REMARK  208  A    between atoms: _515  and  _518
REMARK  209  A    between atoms: _518  and  _519
REMARK  210  A    between atoms: _519  and  _520
REMARK  211  A    between atoms: _520  and  _521
REMARK  212  A    between atoms: _521  and  _522
REMARK  213  A    between atoms: _526  and  _528
REMARK  214  A    between atoms: _528  and  _529
REMARK  215  A    between atoms: _528  and  _531
REMARK  216  A    between atoms: _531  and  _532
REMARK  217  A    between atoms: _532  and  _533
REMARK  218  A    between atoms: _533  and  _534
REMARK  219  A    between atoms: _543  and  _545
REMARK  220  A    between atoms: _545  and  _546
REMARK  221  A    between atoms: _545  and  _548
REMARK  222  A    between atoms: _548  and  _549
REMARK  223  A    between atoms: _549  and  _550
REMARK  224  A    between atoms: _553  and  _555
REMARK  225  A    between atoms: _555  and  _556
REMARK  226  A    between atoms: _555  and  _558
REMARK  227  A    between atoms: _558  and  _559
REMARK  228  A    between atoms: _559  and  _560
REMARK  229  A    between atoms: _563  and  _564
REMARK  230  A    between atoms: _569  and  _571
REMARK  231  A    between atoms: _571  and  _572
REMARK  232  A    between atoms: _571  and  _574
REMARK  233  A    between atoms: _574  and  _575
REMARK  234  A    between atoms: _575  and  _576
REMARK  235  A    between atoms: _578  and  _580
REMARK  236  A    between atoms: _580  and  _581
REMARK  237  A    between atoms: _583  and  _585
REMARK  238  A    between atoms: _585  and  _586
REMARK  239  A    between atoms: _585  and  _588
REMARK  240  A    between atoms: _591  and  _593
REMARK  241  A    between atoms: _593  and  _594
REMARK  242  A    between atoms: _593  and  _596
REMARK  243  A    between atoms: _596  and  _597
REMARK  244  A    between atoms: _607  and  _609
REMARK  245  A    between atoms: _609  and  _610
REMARK  246  A    between atoms: _609  and  _612
REMARK  247  A    between atoms: _612  and  _613
REMARK  248  A    between atoms: _613  and  _614
REMARK  249  A    between atoms: _618  and  _619
REMARK  250  A    between atoms: _624  and  _626
REMARK  251  A    between atoms: _626  and  _627
REMARK  252  A    between atoms: _626  and  _629
REMARK  253  A    between atoms: _629  and  _630
REMARK  254  A    between atoms: _633  and  _635
REMARK  255  A    between atoms: _635  and  _636
REMARK  256  A    between atoms: _635  and  _638
REMARK  257  A    between atoms: _638  and  _639
REMARK  258  A    between atoms: _644  and  _646
REMARK  259  A    between atoms: _646  and  _647
REMARK  260  A    between atoms: _646  and  _649
REMARK  261  A    between atoms: _649  and  _650
REMARK                            x       y       z     vdW  Elec       q    Type
REMARK                         _______ _______ _______ _____ _____    ______ ____
ROOT
ATOM      1  C   MET A   1      30.040   2.723  26.264  0.00  0.00    +0.241 C 
ATOM      2  O   MET A   1      29.478   2.759  27.360  0.00  0.00    -0.273 OA
ATOM      3  N   PRO A   2      31.025   3.575  25.920  0.00  0.00    -0.273 N 
ATOM      4  CA  PRO A   2      31.317   4.706  26.805  0.00  0.00    +0.140 C 
ATOM      5  CB  PRO A   2      32.387   5.487  26.041  0.00  0.00    +0.030 C 
ATOM      6  CG  PRO A   2      33.020   4.481  25.130  0.00  0.00    +0.024 C 
ATOM      7  CD  PRO A   2      31.919   3.540  24.747  0.00  0.00    +0.094 C 
ENDROOT
BRANCH   4   8
ATOM      8  C   PRO A   2      30.074   5.568  27.016  0.00  0.00    +0.227 C 
ATOM      9  O   PRO A   2      29.231   5.669  26.122  0.00  0.00    -0.286 OA
ENDBRANCH   4   8
BRANCH   1  10
ATOM     10  CA  MET A   1      29.638   1.664  25.248  0.00  0.00    +0.146 C 
BRANCH  10  11
ATOM     11  N   MET A   1      29.310   0.435  25.961  0.00  0.00    -0.238 NA
ATOM     12  H   MET A   1      28.365   0.016  25.845  0.00  0.00    +0.142 HD
ENDBRANCH  10  11
BRANCH  10  13
ATOM     13  CB  MET A   1      28.436   2.167  24.450  0.00  0.00    +0.038 C 
BRANCH  13  14
ATOM     14  CG  MET A   1      28.096   1.340  23.230  0.00  0.00    +0.060 C 
BRANCH  14  15
ATOM     15  SD  MET A   1      26.730   2.024  22.291  0.00  0.00    -0.139 S 
ATOM     16  CE  MET A   1      25.341   1.655  23.370  0.00  0.00    +0.069 C 
ENDBRANCH  14  15
ENDBRANCH  13  14
ENDBRANCH  10  13
ENDBRANCH   1  10
TORSDOF 6
REMARK  Name = ../refined-set-2016/2zym/2zym_pocket.pdb
REMARK  261 active torsions:
REMARK  status: ('A' for Active; 'I' for Inactive)
REMARK    1  A    between atoms: _1  and  _3
REMARK    2  A    between atoms: _3  and  _4
REMARK    3  A    between atoms: _3  and  _6
REMARK    4  A    between atoms: _6  and  _7
REMARK    5  A    between atoms: _7  and  _8
REMARK    6  A    between atoms: _11  and  _13
REMARK    7  A    between atoms: _13  and  _14
REMARK    8  A    between atoms: _13  and  _16
REMARK    9  A    between atoms: _16  and  _17
REMARK   10  A    between atoms: _22  and  _24
REMARK   11  A    between atoms: _24  and  _25
REMARK   12  A    between atoms: _28  and  _30
REMARK   13  A    between atoms: _30  and  _31
REMARK   14  A    between atoms: _30  and  _33
REMARK   15  A    between atoms: _33  and  _34
REMARK   16  A    between atoms: _37  and  _39
REMARK   17  A    between atoms: _39  and  _40
REMARK   18  A    between atoms: _39  and  _42
REMARK   19  A    between atoms: _42  and  _43
REMARK   20  A    between atoms: _43  and  _44
REMARK   21  A    between atoms: _49  and  _51
REMARK   22  A    between atoms: _51  and  _52
REMARK   23  A    between atoms: _51  and  _54
REMARK   24  A    between atoms: _57  and  _59
REMARK   25  A    between atoms: _59  and  _60
REMARK   26  A    between atoms: _63  and  _65
REMARK   27  A    between atoms: _65  and  _66
REMARK   28  A    between atoms: _65  and  _68
REMARK   29  A    between atoms: _68  and  _69
REMARK   30  A    between atoms: _72  and  _74
REMARK   31  A    between atoms: _74  and  _75
REMARK   32  A    between atoms: _74  and  _77
REMARK   33  A    between atoms: _77  and  _78
REMARK   34  A    between atoms: _81  and  _83
REMARK   35  A    between atoms: _83  and  _84
REMARK   36  A    between atoms: _83  and  _86
REMARK   37  A    between atoms: _86  and  _87
REMARK   38  A    between atoms: _87  and  _88
REMARK   39  A    between atoms: _88  and  _89
REMARK   40  A    between atoms: _89  and  _90
REMARK   41  A    between atoms: _94  and  _96
REMARK   42  A    between atoms: _96  and  _97
REMARK   43  A    between atoms: _96  and  _99
REMARK   44  A    between atoms: _99  and  _100
REMARK   45  A    between atoms: _100  and  _101
REMARK   46  A    between atoms: _106  and  _108
REMARK   47  A    between atoms: _108  and  _109
REMARK   48  A    between atoms: _108  and  _111
REMARK   49  A    between atoms: _111  and  _112
REMARK   50  A    between atoms: _112  and  _113
REMARK   51  A    between atoms: _118  and  _120
REMARK   52  A    between atoms: _120  and  _121
REMARK   53  A    between atoms: _120  and  _123
REMARK   54  A    between atoms: _123  and  _124
REMARK   55  A    between atoms: _124  and  _125
REMARK   56  A    between atoms: _128  and  _130
REMARK   57  A    between atoms: _130  and  _131
REMARK   58  A    between atoms: _130  and  _133
REMARK   59  A    between atoms: _133  and  _134
REMARK   60  A    between atoms: _134  and  _135
REMARK   61  A    between atoms: _135  and  _136
REMARK   62  A    between atoms: _136  and  _137
REMARK   63  A    between atoms: _141  and  _143
REMARK   64  A    between atoms: _143  and  _144
REMARK   65  A    between atoms: _143  and  _146
REMARK   66  A    between atoms: _146  and  _147
REMARK   67  A    between atoms: _150  and  _152
REMARK   68  A    between atoms: _152  and  _153
REMARK   69  A    between atoms: _152  and  _155
REMARK   70  A    between atoms: _155  and  _156
REMARK   71  A    between atoms: _167  and  _168
REMARK   72  A    between atoms: _173  and  _175
REMARK   73  A    between atoms: _175  and  _176
REMARK   74  A    between atoms: _175  and  _178
REMARK   75  A    between atoms: _178  and  _179
REMARK   76  A    between atoms: _184  and  _186
REMARK   77  A    between atoms: _186  and  _187
REMARK   78  A    between atoms: _186  and  _189
REMARK   79  A    between atoms: _189  and  _190
REMARK   80  A    between atoms: _193  and  _195
REMARK   81  A    between atoms: _195  and  _196
REMARK   82  A    between atoms: _195  and  _198
REMARK   83  A    between atoms: _198  and  _199
REMARK   84  A    between atoms: _199  and  _200
REMARK   85  A    between atoms: _200  and  _201
REMARK   86  A    between atoms: _210  and  _212
REMARK   87  A    between atoms: _212  and  _213
REMARK   88  A    between atoms: _212  and  _215
REMARK   89  A    between atoms: _215  and  _216
REMARK   90  A    between atoms: _219  and  _221
REMARK   91  A    between atoms: _221  and  _222
REMARK   92  A    between atoms: _221  and  _224
REMARK   93  A    between atoms: _224  and  _225
REMARK   94  A    between atoms: _225  and  _226
REMARK   95  A    between atoms: _229  and  _231
REMARK   96  A    between atoms: _231  and  _232
REMARK   97  A    between atoms: _231  and  _234
REMARK   98  A    between atoms: _234  and  _235
REMARK   99  A    between atoms: _235  and  _236
REMARK  100  A    between atoms: _236  and  _237
REMARK  101  A    between atoms: _237  and  _238
REMARK  102  A    between atoms: _242  and  _244
REMARK  103  A    between atoms: _244  and  _245
REMARK  104  A    between atoms: _248  and  _250
REMARK  105  A    between atoms: _250  and  _251
REMARK  106  A    between atoms: _250  and  _253
REMARK  107  A    between atoms: _253  and  _254
REMARK  108  A    between atoms: _254  and  _255
REMARK  109  A    between atoms: _258  and  _260
REMARK  110  A    between atoms: _260  and  _261
REMARK  111  A    between atoms: _260  and  _263
REMARK  112  A    between atoms: _263  and  _264
REMARK  113  A    between atoms: _266  and  _268
REMARK  114  A    between atoms: _268  and  _269
REMARK  115  A    between atoms: _268  and  _271
REMARK  116  A    between atoms: _274  and  _276
REMARK  117  A    between atoms: _276  and  _277
REMARK  118  A    between atoms: _276  and  _279
REMARK  119  A    between atoms: _279  and  _280
REMARK  120  A    between atoms: _280  and  _281
REMARK  121  A    between atoms: _284  and  _286
REMARK  122  A    between atoms: _286  and  _287
REMARK  123  A    between atoms: _286  and  _289
REMARK  124  A    between atoms: _289  and  _290
REMARK  125  A    between atoms: _295  and  _297
REMARK  126  A    between atoms: _297  and  _298
REMARK  127  A    between atoms: _297  and  _300
REMARK  128  A    between atoms: _300  and  _301
REMARK  129  A    between atoms: _306  and  _308
REMARK  130  A    between atoms: _308  and  _309
REMARK  131  A    between atoms: _308  and  _311
REMARK  132  A    between atoms: _311  and  _312
REMARK  133  A    between atoms: _318  and  _320
REMARK  134  A    between atoms: _320  and  _321
REMARK  135  A    between atoms: _320  and  _323
REMARK  136  A    between atoms: _323  and  _324
REMARK  137  A    between atoms: _329  and  _330
REMARK  138  A    between atoms: _332  and  _334
REMARK  139  A    between atoms: _334  and  _335
REMARK  140  A    between atoms: _334  and  _337
REMARK  141  A    between atoms: _337  and  _338
REMARK  142  A    between atoms: _343  and  _344
REMARK  143  A    between atoms: _346  and  _348
REMARK  144  A    between atoms: _348  and  _349
REMARK  145  A    between atoms: _348  and  _351
REMARK  146  A    between atoms: _351  and  _352
REMARK  147  A    between atoms: _355  and  _357
REMARK  148  A    between atoms: _357  and  _358
REMARK  149  A    between atoms: _357  and  _360
REMARK  150  A    between atoms: _360  and  _361
REMARK  151  A    between atoms: _364  and  _366
REMARK  152  A    between atoms: _366  and  _367
REMARK  153  A    between atoms: _366  and  _369
REMARK  154  A    between atoms: _369  and  _370
REMARK  155  A    between atoms: _370  and  _371
REMARK  156  A    between atoms: _371  and  _372
REMARK  157  A    between atoms: _372  and  _373
REMARK  158  A    between atoms: _377  and  _379
REMARK  159  A    between atoms: _379  and  _380
REMARK  160  A    between atoms: _383  and  _385
REMARK  161  A    between atoms: _385  and  _386
REMARK  162  A    between atoms: _385  and  _388
REMARK  163  A    between atoms: _388  and  _389
REMARK  164  A    between atoms: _392  and  _394
REMARK  165  A    between atoms: _394  and  _395
REMARK  166  A    between atoms: _394  and  _397
REMARK  167  A    between atoms: _397  and  _398
REMARK  168  A    between atoms: _401  and  _403
REMARK  169  A    between atoms: _403  and  _404
REMARK  170  A    between atoms: _403  and  _406
REMARK  171  A    between atoms: _409  and  _411
REMARK  172  A    between atoms: _411  and  _412
REMARK  173  A    between atoms: _411  and  _414
REMARK  174  A    between atoms: _414  and  _415
REMARK  175  A    between atoms: _420  and  _422
REMARK  176  A    between atoms: _422  and  _423
REMARK  177  A    between atoms: _422  and  _425
REMARK  178  A    between atoms: _425  and  _426
REMARK  179  A    between atoms: _431  and  _433
REMARK  180  A    between atoms: _433  and  _434
REMARK  181  A    between atoms: _437  and  _438
REMARK  182  A    between atoms: _443  and  _445
REMARK  183  A    between atoms: _445  and  _446
REMARK  184  A    between atoms: _445  and  _448
REMARK  185  A    between atoms: _448  and  _449
REMARK  186  A    between atoms: _459  and  _461
REMARK  187  A    between atoms: _461  and  _462
REMARK  188  A    between atoms: _465  and  _467
REMARK  189  A    between atoms: _467  and  _468
REMARK  190  A    between atoms: _467  and  _470
REMARK  191  A    between atoms: _470  and  _471
REMARK  192  A    between atoms: _476  and  _477
REMARK  193  A    between atoms: _479  and  _481
REMARK  194  A    between atoms: _481  and  _482
REMARK  195  A    between atoms: _481  and  _484
REMARK  196  A    between atoms: _484  and  _485
REMARK  197  A    between atoms: _491  and  _493
REMARK  198  A    between atoms: _493  and  _494
REMARK  199  A    between atoms: _493  and  _496
REMARK  200  A    between atoms: _496  and  _497
REMARK  201  A    between atoms: _500  and  _502
REMARK  202  A    between atoms: _502  and  _503
REMARK  203  A    between atoms: _505  and  _507
REMARK  204  A    between atoms: _507  and  _508
REMARK  205  A    between atoms: _507  and  _510
REMARK  206  A    between atoms: _513  and  _515
REMARK  207  A    between atoms: _515  and  _516
REMARK  208  A    between atoms: _515  and  _518
REMARK  209  A    between atoms: _518  and  _519
REMARK  210  A    between atoms: _519  and  _520
REMARK  211  A    between atoms: _520  and  _521
REMARK  212  A    between atoms: _521  and  _522
REMARK  213  A    between atoms: _526  and  _528
REMARK  214  A    between atoms: _528  and  _529
REMARK  215  A    between atoms: _528  and  _531
REMARK  216  A    between atoms: _531  and  _532
REMARK  217  A    between atoms: _532  and  _533
REMARK  218  A    between atoms: _533  and  _534
REMARK  219  A    between atoms: _543  and  _545
REMARK  220  A    between atoms: _545  and  _546
REMARK  221  A    between atoms: _545  and  _548
REMARK  222  A    between atoms: _548  and  _549
REMARK  223  A    between atoms: _549  and  _550
REMARK  224  A    between atoms: _553  and  _555
REMARK  225  A    between atoms: _555  and  _556
REMARK  226  A    between atoms: _555  and  _558
REMARK  227  A    between atoms: _558  and  _559
REMARK  228  A    between atoms: _559  and  _560
REMARK  229  A    between atoms: _563  and  _564
REMARK  230  A    between atoms: _569  and  _571
REMARK  231  A    between atoms: _571  and  _572
REMARK  232  A    between atoms: _571  and  _574
REMARK  233  A    between atoms: _574  and  _575
REMARK  234  A    between atoms: _575  and  _576
REMARK  235  A    between atoms: _578  and  _580
REMARK  236  A    between atoms: _580  and  _581
REMARK  237  A    between atoms: _583  and  _585
REMARK  238  A    between atoms: _585  and  _586
REMARK  239  A    between atoms: _585  and  _588
REMARK  240  A    between atoms: _591  and  _593
REMARK  241  A    between atoms: _593  and  _594
REMARK  242  A    between atoms: _593  and  _596
REMARK  243  A    between atoms: _596  and  _597
REMARK  244  A    between atoms: _607  and  _609
REMARK  245  A    between atoms: _609  and  _610
REMARK  246  A    between atoms: _609  and  _612
REMARK  247  A    between atoms: _612  and  _613
REMARK  248  A    between atoms: _613  and  _614
REMARK  249  A    between atoms: _618  and  _619
REMARK  250  A    between atoms: _624  and  _626
REMARK  251  A    between atoms: _626  and  _627
REMARK  252  A    between atoms: _626  and  _629
REMARK  253  A    between atoms: _629  and  _630
REMARK  254  A    between atoms: _633  and  _635
REMARK  255  A    between atoms: _635  and  _636
REMARK  256  A    between atoms: _635  and  _638
REMARK  257  A    between atoms: _638  and  _639
REMARK  258  A    between atoms: _644  and  _646
REMARK  259  A    between atoms: _646  and  _647
REMARK  260  A    between atoms: _646  and  _649
REMARK  261  A    between atoms: _649  and  _650
REMARK                            x       y       z     vdW  Elec       q    Type
REMARK                         _______ _______ _______ _____ _____    ______ ____
ROOT
ATOM      1  CA  MET A   1      30.481  10.235  23.443  0.00  0.00    +0.146 C 
ENDROOT
BRANCH   1   2
ATOM      2  C   MET A   1      29.452  10.885  22.514  0.00  0.00    +0.238 C 
ATOM      3  N   GLY A   2      28.858  11.982  22.983  0.00  0.00    -0.297 N 
ATOM      4  H   GLY A   2      29.079  12.290  23.951  0.00  0.00    +0.150 HD
ATOM      5  O   MET A   1      29.231  10.418  21.397  0.00  0.00    -0.274 OA
BRANCH   3   6
ATOM      6  CA  GLY A   2      27.911  12.772  22.201  0.00  0.00    +0.163 C 
BRANCH   6   7
ATOM      7  C   GLY A   2      28.515  13.546  21.039  0.00  0.00    +0.229 C 
ATOM      8  O   GLY A   2      27.808  14.269  20.332  0.00  0.00    -0.286 OA
ENDBRANCH   6   7
ENDBRANCH   3   6
ENDBRANCH   1   2
BRANCH   1   9
ATOM      9  N   MET A   1      31.063  11.235  24.334  0.00  0.00    -0.238 NA
ATOM     10  H   MET A   1      30.933  11.138  25.361  0.00  0.00    +0.142 HD
ENDBRANCH   1   9
BRANCH   1  11
ATOM     11  CB  MET A   1      29.849   9.088  24.241  0.00  0.00    +0.038 C 
BRANCH  11  12
ATOM     12  CG  MET A   1      29.693   7.804  23.441  0.00  0.00    +0.060 C 
BRANCH  12  13
ATOM     13  SD  MET A   1      31.289   7.190  22.892  0.00  0.00    -0.139 S 
ATOM     14  CE  MET A   1      30.820   6.156  21.507  0.00  0.00    +0.069 C 
ENDBRANCH  12  13
ENDBRANCH  11  12
ENDBRANCH   1  11
TORSDOF 7
REMARK  Name = ../refined-set-2016/2zym/2zym_pocket.pdb
REMARK  261 active torsions:
REMARK  status: ('A' for Active; 'I' for Inactive)
REMARK    1  A    between atoms: _1  and  _3
REMARK    2  A    between atoms: _3  and  _4
REMARK    3  A    between atoms: _3  and  _6
REMARK    4  A    between atoms: _6  and  _7
REMARK    5  A    between atoms: _7  and  _8
REMARK    6  A    between atoms: _11  and  _13
REMARK    7  A    between atoms: _13  and  _14
REMARK    8  A    between atoms: _13  and  _16
REMARK    9  A    between atoms: _16  and  _17
REMARK   10  A    between atoms: _22  and  _24
REMARK   11  A    between atoms: _24  and  _25
REMARK   12  A    between atoms: _28  and  _30
REMARK   13  A    between atoms: _30  and  _31
REMARK   14  A    between atoms: _30  and  _33
REMARK   15  A    between atoms: _33  and  _34
REMARK   16  A    between atoms: _37  and  _39
REMARK   17  A    between atoms: _39  and  _40
REMARK   18  A    between atoms: _39  and  _42
REMARK   19  A    between atoms: _42  and  _43
REMARK   20  A    between atoms: _43  and  _44
REMARK   21  A    between atoms: _49  and  _51
REMARK   22  A    between atoms: _51  and  _52
REMARK   23  A    between atoms: _51  and  _54
REMARK   24  A    between atoms: _57  and  _59
REMARK   25  A    between atoms: _59  and  _60
REMARK   26  A    between atoms: _63  and  _65
REMARK   27  A    between atoms: _65  and  _66
REMARK   28  A    between atoms: _65  and  _68
REMARK   29  A    between atoms: _68  and  _69
REMARK   30  A    between atoms: _72  and  _74
REMARK   31  A    between atoms: _74  and  _75
REMARK   32  A    between atoms: _74  and  _77
REMARK   33  A    between atoms: _77  and  _78
REMARK   34  A    between atoms: _81  and  _83
REMARK   35  A    between atoms: _83  and  _84
REMARK   36  A    between atoms: _83  and  _86
REMARK   37  A    between atoms: _86  and  _87
REMARK   38  A    between atoms: _87  and  _88
REMARK   39  A    between atoms: _88  and  _89
REMARK   40  A    between atoms: _89  and  _90
REMARK   41  A    between atoms: _94  and  _96
REMARK   42  A    between atoms: _96  and  _97
REMARK   43  A    between atoms: _96  and  _99
REMARK   44  A    between atoms: _99  and  _100
REMARK   45  A    between atoms: _100  and  _101
REMARK   46  A    between atoms: _106  and  _108
REMARK   47  A    between atoms: _108  and  _109
REMARK   48  A    between atoms: _108  and  _111
REMARK   49  A    between atoms: _111  and  _112
REMARK   50  A    between atoms: _112  and  _113
REMARK   51  A    between atoms: _118  and  _120
REMARK   52  A    between atoms: _120  and  _121
REMARK   53  A    between atoms: _120  and  _123
REMARK   54  A    between atoms: _123  and  _124
REMARK   55  A    between atoms: _124  and  _125
REMARK   56  A    between atoms: _128  and  _130
REMARK   57  A    between atoms: _130  and  _131
REMARK   58  A    between atoms: _130  and  _133
REMARK   59  A    between atoms: _133  and  _134
REMARK   60  A    between atoms: _134  and  _135
REMARK   61  A    between atoms: _135  and  _136
REMARK   62  A    between atoms: _136  and  _137
REMARK   63  A    between atoms: _141  and  _143
REMARK   64  A    between atoms: _143  and  _144
REMARK   65  A    between atoms: _143  and  _146
REMARK   66  A    between atoms: _146  and  _147
REMARK   67  A    between atoms: _150  and  _152
REMARK   68  A    between atoms: _152  and  _153
REMARK   69  A    between atoms: _152  and  _155
REMARK   70  A    between atoms: _155  and  _156
REMARK   71  A    between atoms: _167  and  _168
REMARK   72  A    between atoms: _173  and  _175
REMARK   73  A    between atoms: _175  and  _176
REMARK   74  A    between atoms: _175  and  _178
REMARK   75  A    between atoms: _178  and  _179
REMARK   76  A    between atoms: _184  and  _186
REMARK   77  A    between atoms: _186  and  _187
REMARK   78  A    between atoms: _186  and  _189
REMARK   79  A    between atoms: _189  and  _190
REMARK   80  A    between atoms: _193  and  _195
REMARK   81  A    between atoms: _195  and  _196
REMARK   82  A    between atoms: _195  and  _198
REMARK   83  A    between atoms: _198  and  _199
REMARK   84  A    between atoms: _199  and  _200
REMARK   85  A    between atoms: _200  and  _201
REMARK   86  A    between atoms: _210  and  _212
REMARK   87  A    between atoms: _212  and  _213
REMARK   88  A    between atoms: _212  and  _215
REMARK   89  A    between atoms: _215  and  _216
REMARK   90  A    between atoms: _219  and  _221
REMARK   91  A    between atoms: _221  and  _222
REMARK   92  A    between atoms: _221  and  _224
REMARK   93  A    between atoms: _224  and  _225
REMARK   94  A    between atoms: _225  and  _226
REMARK   95  A    between atoms: _229  and  _231
REMARK   96  A    between atoms: _231  and  _232
REMARK   97  A    between atoms: _231  and  _234
REMARK   98  A    between atoms: _234  and  _235
REMARK   99  A    between atoms: _235  and  _236
REMARK  100  A    between atoms: _236  and  _237
REMARK  101  A    between atoms: _237  and  _238
REMARK  102  A    between atoms: _242  and  _244
REMARK  103  A    between atoms: _244  and  _245
REMARK  104  A    between atoms: _248  and  _250
REMARK  105  A    between atoms: _250  and  _251
REMARK  106  A    between atoms: _250  and  _253
REMARK  107  A    between atoms: _253  and  _254
REMARK  108  A    between atoms: _254  and  _255
REMARK  109  A    between atoms: _258  and  _260
REMARK  110  A    between atoms: _260  and  _261
REMARK  111  A    between atoms: _260  and  _263
REMARK  112  A    between atoms: _263  and  _264
REMARK  113  A    between atoms: _266  and  _268
REMARK  114  A    between atoms: _268  and  _269
REMARK  115  A    between atoms: _268  and  _271
REMARK  116  A    between atoms: _274  and  _276
REMARK  117  A    between atoms: _276  and  _277
REMARK  118  A    between atoms: _276  and  _279
REMARK  119  A    between atoms: _279  and  _280
REMARK  120  A    between atoms: _280  and  _281
REMARK  121  A    between atoms: _284  and  _286
REMARK  122  A    between atoms: _286  and  _287
REMARK  123  A    between atoms: _286  and  _289
REMARK  124  A    between atoms: _289  and  _290
REMARK  125  A    between atoms: _295  and  _297
REMARK  126  A    between atoms: _297  and  _298
REMARK  127  A    between atoms: _297  and  _300
REMARK  128  A    between atoms: _300  and  _301
REMARK  129  A    between atoms: _306  and  _308
REMARK  130  A    between atoms: _308  and  _309
REMARK  131  A    between atoms: _308  and  _311
REMARK  132  A    between atoms: _311  and  _312
REMARK  133  A    between atoms: _318  and  _320
REMARK  134  A    between atoms: _320  and  _321
REMARK  135  A    between atoms: _320  and  _323
REMARK  136  A    between atoms: _323  and  _324
REMARK  137  A    between atoms: _329  and  _330
REMARK  138  A    between atoms: _332  and  _334
REMARK  139  A    between atoms: _334  and  _335
REMARK  140  A    between atoms: _334  and  _337
REMARK  141  A    between atoms: _337  and  _338
REMARK  142  A    between atoms: _343  and  _344
REMARK  143  A    between atoms: _346  and  _348
REMARK  144  A    between atoms: _348  and  _349
REMARK  145  A    between atoms: _348  and  _351
REMARK  146  A    between atoms: _351  and  _352
REMARK  147  A    between atoms: _355  and  _357
REMARK  148  A    between atoms: _357  and  _358
REMARK  149  A    between atoms: _357  and  _360
REMARK  150  A    between atoms: _360  and  _361
REMARK  151  A    between atoms: _364  and  _366
REMARK  152  A    between atoms: _366  and  _367
REMARK  153  A    between atoms: _366  and  _369
REMARK  154  A    between atoms: _369  and  _370
REMARK  155  A    between atoms: _370  and  _371
REMARK  156  A    between atoms: _371  and  _372
REMARK  157  A    between atoms: _372  and  _373
REMARK  158  A    between atoms: _377  and  _379
REMARK  159  A    between atoms: _379  and  _380
REMARK  160  A    between atoms: _383  and  _385
REMARK  161  A    between atoms: _385  and  _386
REMARK  162  A    between atoms: _385  and  _388
REMARK  163  A    between atoms: _388  and  _389
REMARK  164  A    between atoms: _392  and  _394
REMARK  165  A    between atoms: _394  and  _395
REMARK  166  A    between atoms: _394  and  _397
REMARK  167  A    between atoms: _397  and  _398
REMARK  168  A    between atoms: _401  and  _403
REMARK  169  A    between atoms: _403  and  _404
REMARK  170  A    between atoms: _403  and  _406
REMARK  171  A    between atoms: _409  and  _411
REMARK  172  A    between atoms: _411  and  _412
REMARK  173  A    between atoms: _411  and  _414
REMARK  174  A    between atoms: _414  and  _415
REMARK  175  A    between atoms: _420  and  _422
REMARK  176  A    between atoms: _422  and  _423
REMARK  177  A    between atoms: _422  and  _425
REMARK  178  A    between atoms: _425  and  _426
REMARK  179  A    between atoms: _431  and  _433
REMARK  180  A    between atoms: _433  and  _434
REMARK  181  A    between atoms: _437  and  _438
REMARK  182  A    between atoms: _443  and  _445
REMARK  183  A    between atoms: _445  and  _446
REMARK  184  A    between atoms: _445  and  _448
REMARK  185  A    between atoms: _448  and  _449
REMARK  186  A    between atoms: _459  and  _461
REMARK  187  A    between atoms: _461  and  _462
REMARK  188  A    between atoms: _465  and  _467
REMARK  189  A    between atoms: _467  and  _468
REMARK  190  A    between atoms: _467  and  _470
REMARK  191  A    between atoms: _470  and  _471
REMARK  192  A    between atoms: _476  and  _477
REMARK  193  A    between atoms: _479  and  _481
REMARK  194  A    between atoms: _481  and  _482
REMARK  195  A    between atoms: _481  and  _484
REMARK  196  A    between atoms: _484  and  _485
REMARK  197  A    between atoms: _491  and  _493
REMARK  198  A    between atoms: _493  and  _494
REMARK  199  A    between atoms: _493  and  _496
REMARK  200  A    between atoms: _496  and  _497
REMARK  201  A    between atoms: _500  and  _502
REMARK  202  A    between atoms: _502  and  _503
REMARK  203  A    between atoms: _505  and  _507
REMARK  204  A    between atoms: _507  and  _508
REMARK  205  A    between atoms: _507  and  _510
REMARK  206  A    between atoms: _513  and  _515
REMARK  207  A    between atoms: _515  and  _516
REMARK  208  A    between atoms: _515  and  _518
REMARK  209  A    between atoms: _518  and  _519
REMARK  210  A    between atoms: _519  and  _520
REMARK  211  A    between atoms: _520  and  _521
REMARK  212  A    between atoms: _521  and  _522
REMARK  213  A    between atoms: _526  and  _528
REMARK  214  A    between atoms: _528  and  _529
REMARK  215  A    between atoms: _528  and  _531
REMARK  216  A    between atoms: _531  and  _532
REMARK  217  A    between atoms: _532  and  _533
REMARK  218  A    between atoms: _533  and  _534
REMARK  219  A    between atoms: _543  and  _545
REMARK  220  A    between atoms: _545  and  _546
REMARK  221  A    between atoms: _545  and  _548
REMARK  222  A    between atoms: _548  and  _549
REMARK  223  A    between atoms: _549  and  _550
REMARK  224  A    between atoms: _553  and  _555
REMARK  225  A    between atoms: _555  and  _556
REMARK  226  A    between atoms: _555  and  _558
REMARK  227  A    between atoms: _558  and  _559
REMARK  228  A    between atoms: _559  and  _560
REMARK  229  A    between atoms: _563  and  _564
REMARK  230  A    between atoms: _569  and  _571
REMARK  231  A    between atoms: _571  and  _572
REMARK  232  A    between atoms: _571  and  _574
REMARK  233  A    between atoms: _574  and  _575
REMARK  234  A    between atoms: _575  and  _576
REMARK  235  A    between atoms: _578  and  _580
REMARK  236  A    between atoms: _580  and  _581
REMARK  237  A    between atoms: _583  and  _585
REMARK  238  A    between atoms: _585  and  _586
REMARK  239  A    between atoms: _585  and  _588
REMARK  240  A    between atoms: _591  and  _593
REMARK  241  A    between atoms: _593  and  _594
REMARK  242  A    between atoms: _593  and  _596
REMARK  243  A    between atoms: _596  and  _597
REMARK  244  A    between atoms: _607  and  _609
REMARK  245  A    between atoms: _609  and  _610
REMARK  246  A    between atoms: _609  and  _612
REMARK  247  A    between atoms: _612  and  _613
REMARK  248  A    between atoms: _613  and  _614
REMARK  249  A    between atoms: _618  and  _619
REMARK  250  A    between atoms: _624  and  _626
REMARK  251  A    between atoms: _626  and  _627
REMARK  252  A    between atoms: _626  and  _629
REMARK  253  A    between atoms: _629  and  _630
REMARK  254  A    between atoms: _633  and  _635
REMARK  255  A    between atoms: _635  and  _636
REMARK  256  A    between atoms: _635  and  _638
REMARK  257  A    between atoms: _638  and  _639
REMARK  258  A    between atoms: _644  and  _646
REMARK  259  A    between atoms: _646  and  _647
REMARK  260  A    between atoms: _646  and  _649
REMARK  261  A    between atoms: _649  and  _650
REMARK                            x       y       z     vdW  Elec       q    Type
REMARK                         _______ _______ _______ _____ _____    ______ ____
ROOT
ATOM      1  C   GLU A   3      29.637  11.547  12.743  0.00  0.00    +0.244 C 
ATOM      2  N   PRO A   4      30.741  12.101  13.296  0.00  0.00    -0.272 N 
ATOM      3  CD  PRO A   4      30.879  12.813  14.580  0.00  0.00    +0.094 C 
ATOM      4  CG  PRO A   4      32.156  13.577  14.411  0.00  0.00    +0.024 C 
ATOM      5  CB  PRO A   4      32.998  12.727  13.542  0.00  0.00    +0.031 C 
ATOM      6  CA  PRO A   4      32.015  12.062  12.569  0.00  0.00    +0.152 C 
ATOM      7  O   GLU A   3      29.641  11.046  11.618  0.00  0.00    -0.273 OA
ENDROOT
BRANCH   6   8
ATOM      8  C   PRO A   4      32.499  10.653  12.217  0.00  0.00    +0.241 C 
ATOM      9  N   ILE A   5      32.425   9.720  13.165  0.00  0.00    -0.297 N 
ATOM     10  H   ILE A   5      32.009   9.952  14.090  0.00  0.00    +0.150 HD
ATOM     11  O   PRO A   4      32.933  10.421  11.087  0.00  0.00    -0.273 OA
BRANCH   9  12
ATOM     12  CA  ILE A   5      32.928   8.367  12.908  0.00  0.00    +0.149 C 
BRANCH  12  13
ATOM     13  C   ILE A   5      32.100   7.635  11.845  0.00  0.00    +0.241 C 
ATOM     14  N   ASN A   6      30.778   7.798  11.899  0.00  0.00    -0.297 N 
ATOM     15  H   ASN A   6      30.367   8.341  12.685  0.00  0.00    +0.150 HD
ATOM     16  O   ILE A   5      32.660   6.954  10.985  0.00  0.00    -0.273 OA
BRANCH  14  17
ATOM     17  CA  ASN A   6      29.890   7.234  10.882  0.00  0.00    +0.158 C 
BRANCH  17  18
ATOM     18  C   ASN A   6      30.077   7.909   9.523  0.00  0.00    +0.241 C 
ATOM     19  N   ASN A   7      30.305   9.222   9.535  0.00  0.00    -0.298 N 
ATOM     20  H   ASN A   7      30.224   9.742  10.432  0.00  0.00    +0.150 HD
ATOM     21  O   ASN A   6      30.024   7.248   8.484  0.00  0.00    -0.273 OA
BRANCH  19  22
ATOM     22  CA  ASN A   7      30.667   9.952   8.319  0.00  0.00    +0.146 C 
BRANCH  22  23
ATOM     23  C   ASN A   7      31.957   9.411   7.703  0.00  0.00    +0.227 C 
ATOM     24  O   ASN A   7      32.062   9.288   6.483  0.00  0.00    -0.286 OA
ENDBRANCH  22  23
BRANCH  22  25
ATOM     25  CB  ASN A   7      30.807  11.453   8.593  0.00  0.00    +0.112 C 
BRANCH  25  26
ATOM     26  CG  ASN A   7      29.466  12.170   8.690  0.00  0.00    +0.222 C 
ATOM     27  OD1 ASN A   7      29.420  13.354   9.018  0.00  0.00    -0.275 OA
ATOM     28  ND2 ASN A   7      28.372  11.459   8.410  0.00  0.00    -0.329 N 
ATOM     29 HD21 ASN A   7      27.434  11.905   8.465  0.00  0.00    +0.145 HD
ATOM     30 HD22 ASN A   7      28.457  10.459   8.136  0.00  0.00    +0.145 HD
ENDBRANCH  25  26
ENDBRANCH  22  25
ENDBRANCH  19  22
ENDBRANCH  17  18
BRANCH  17  31
ATOM     31  CB  ASN A   6      28.423   7.302  11.328  0.00  0.00    +0.114 C 
BRANCH  31  32
ATOM     32  CG  ASN A   6      28.036   6.173  12.285  0.00  0.00    +0.222 C 
ATOM     33  OD1 ASN A   6      26.888   6.092  12.723  0.00  0.00    -0.275 OA
ATOM     34  ND2 ASN A   6      28.986   5.303  12.609  0.00  0.00    -0.329 N 
ATOM     35 HD21 ASN A   6      28.773   4.517  13.255  0.00  0.00    +0.145 HD
ATOM     36 HD22 ASN A   6      29.943   5.408  12.216  0.00  0.00    +0.145 HD
ENDBRANCH  31  32
ENDBRANCH  17  31
ENDBRANCH  14  17
ENDBRANCH  12  13
BRANCH  12  37
ATOM     37  CB  ILE A   5      33.101   7.526  14.207  0.00  0.00    +0.027 C 
ATOM     38  CG2 ILE A   5      31.757   7.109  14.791  0.00  0.00    +0.002 C 
BRANCH  37  39
ATOM     39  CG1 ILE A   5      34.003   6.312  13.951  0.00  0.00    +0.002 C 
ATOM     40  CD1 ILE A   5      35.446   6.664  13.683  0.00  0.00    +0.000 C 
ENDBRANCH  37  39
ENDBRANCH  12  37
ENDBRANCH   9  12
ENDBRANCH   6   8
BRANCH   1  41
ATOM     41  CA  GLU A   3      28.333  11.546  13.565  0.00  0.00    +0.149 C 
BRANCH  41  43
ATOM     42  C   TRP A   2      28.846   9.655  15.008  0.00  0.00    +0.241 C 
ATOM     43  N   GLU A   3      28.495  10.933  14.890  0.00  0.00    -0.297 N 
ATOM     44  H   GLU A   3      28.334  11.504  15.744  0.00  0.00    +0.150 HD
ATOM     45  O   TRP A   2      29.092   8.942  14.037  0.00  0.00    -0.273 OA
BRANCH  42  46
ATOM     46  CA  TRP A   2      28.928   9.079  16.419  0.00  0.00    +0.153 C 
BRANCH  46  48
ATOM     47  C   VAL A   1      30.979  10.121  17.259  0.00  0.00    +0.238 C 
ATOM     48  N   TRP A   2      29.678   9.876  17.403  0.00  0.00    -0.297 N 
ATOM     49  H   TRP A   2      29.179  10.258  18.232  0.00  0.00    +0.150 HD
ATOM     50  O   VAL A   1      31.578   9.962  16.193  0.00  0.00    -0.274 OA
BRANCH  47  51
ATOM     51  CA  VAL A   1      31.729  10.624  18.498  0.00  0.00    +0.145 C 
BRANCH  51  52
ATOM     52  CB  VAL A   1      31.997   9.437  19.466  0.00  0.00    +0.025 C 
ATOM     53  CG2 VAL A   1      33.002   9.835  20.543  0.00  0.00    +0.002 C 
ATOM     54  CG1 VAL A   1      32.480   8.200  18.714  0.00  0.00    +0.002 C 
ENDBRANCH  51  52
BRANCH  51  55
ATOM     55  N   VAL A   1      31.056  11.722  19.193  0.00  0.00    -0.238 NA
ATOM     56  H   VAL A   1      30.529  11.510  20.064  0.00  0.00    +0.142 HD
ENDBRANCH  51  55
ENDBRANCH  47  51
ENDBRANCH  46  48
BRANCH  46  57
ATOM     57  CB  TRP A   2      27.525   8.737  16.935  0.00  0.00    +0.057 C 
BRANCH  57  58
ATOM     58  CG  TRP A   2      27.522   7.834  18.137  0.00  0.00    -0.002 A 
ATOM     59  CD1 TRP A   2      27.120   8.156  19.404  0.00  0.00    +0.068 A 
ATOM     60  NE1 TRP A   2      27.254   7.068  20.233  0.00  0.00    -0.352 N 
ATOM     61  HE1 TRP A   2      27.014   7.046  21.245  0.00  0.00    +0.166 HD
ATOM     62  CE2 TRP A   2      27.755   6.017  19.511  0.00  0.00    +0.056 A 
ATOM     63  CZ2 TRP A   2      28.058   4.711  19.912  0.00  0.00    +0.017 A 
ATOM     64  CH2 TRP A   2      28.554   3.855  18.962  0.00  0.00    +0.001 A 
ATOM     65  CZ3 TRP A   2      28.744   4.265  17.632  0.00  0.00    +0.000 A 
ATOM     66  CE3 TRP A   2      28.440   5.563  17.230  0.00  0.00    +0.001 A 
ATOM     67  CD2 TRP A   2      27.934   6.462  18.183  0.00  0.00    +0.013 A 
ENDBRANCH  57  58
ENDBRANCH  46  57
ENDBRANCH  42  46
ENDBRANCH  41  43
BRANCH  41  68
ATOM     68  CB  GLU A   3      27.692  12.941  13.652  0.00  0.00    +0.041 C 
BRANCH  68  69
ATOM     69  CG  GLU A   3      27.482  13.616  12.298  0.00  0.00    +0.116 C 
BRANCH  69  70
ATOM     70  CD  GLU A   3      26.502  14.770  12.359  0.00  0.00    +0.365 C 
ATOM     71  OE2 GLU A   3      25.289  14.518  12.520  0.00  0.00    -0.246 OA
ATOM     72  OE1 GLU A   3      26.944  15.931  12.231  0.00  0.00    -0.246 OA
ENDBRANCH  69  70
ENDBRANCH  68  69
ENDBRANCH  41  68
ENDBRANCH   1  41
TORSDOF 25
REMARK  Name = ../refined-set-2016/2zym/2zym_pocket.pdb
REMARK  261 active torsions:
REMARK  status: ('A' for Active; 'I' for Inactive)
REMARK    1  A    between atoms: _1  and  _3
REMARK    2  A    between atoms: _3  and  _4
REMARK    3  A    between atoms: _3  and  _6
REMARK    4  A    between atoms: _6  and  _7
REMARK    5  A    between atoms: _7  and  _8
REMARK    6  A    between atoms: _11  and  _13
REMARK    7  A    between atoms: _13  and  _14
REMARK    8  A    between atoms: _13  and  _16
REMARK    9  A    between atoms: _16  and  _17
REMARK   10  A    between atoms: _22  and  _24
REMARK   11  A    between atoms: _24  and  _25
REMARK   12  A    between atoms: _28  and  _30
REMARK   13  A    between atoms: _30  and  _31
REMARK   14  A    between atoms: _30  and  _33
REMARK   15  A    between atoms: _33  and  _34
REMARK   16  A    between atoms: _37  and  _39
REMARK   17  A    between atoms: _39  and  _40
REMARK   18  A    between atoms: _39  and  _42
REMARK   19  A    between atoms: _42  and  _43
REMARK   20  A    between atoms: _43  and  _44
REMARK   21  A    between atoms: _49  and  _51
REMARK   22  A    between atoms: _51  and  _52
REMARK   23  A    between atoms: _51  and  _54
REMARK   24  A    between atoms: _57  and  _59
REMARK   25  A    between atoms: _59  and  _60
REMARK   26  A    between atoms: _63  and  _65
REMARK   27  A    between atoms: _65  and  _66
REMARK   28  A    between atoms: _65  and  _68
REMARK   29  A    between atoms: _68  and  _69
REMARK   30  A    between atoms: _72  and  _74
REMARK   31  A    between atoms: _74  and  _75
REMARK   32  A    between atoms: _74  and  _77
REMARK   33  A    between atoms: _77  and  _78
REMARK   34  A    between atoms: _81  and  _83
REMARK   35  A    between atoms: _83  and  _84
REMARK   36  A    between atoms: _83  and  _86
REMARK   37  A    between atoms: _86  and  _87
REMARK   38  A    between atoms: _87  and  _88
REMARK   39  A    between atoms: _88  and  _89
REMARK   40  A    between atoms: _89  and  _90
REMARK   41  A    between atoms: _94  and  _96
REMARK   42  A    between atoms: _96  and  _97
REMARK   43  A    between atoms: _96  and  _99
REMARK   44  A    between atoms: _99  and  _100
REMARK   45  A    between atoms: _100  and  _101
REMARK   46  A    between atoms: _106  and  _108
REMARK   47  A    between atoms: _108  and  _109
REMARK   48  A    between atoms: _108  and  _111
REMARK   49  A    between atoms: _111  and  _112
REMARK   50  A    between atoms: _112  and  _113
REMARK   51  A    between atoms: _118  and  _120
REMARK   52  A    between atoms: _120  and  _121
REMARK   53  A    between atoms: _120  and  _123
REMARK   54  A    between atoms: _123  and  _124
REMARK   55  A    between atoms: _124  and  _125
REMARK   56  A    between atoms: _128  and  _130
REMARK   57  A    between atoms: _130  and  _131
REMARK   58  A    between atoms: _130  and  _133
REMARK   59  A    between atoms: _133  and  _134
REMARK   60  A    between atoms: _134  and  _135
REMARK   61  A    between atoms: _135  and  _136
REMARK   62  A    between atoms: _136  and  _137
REMARK   63  A    between atoms: _141  and  _143
REMARK   64  A    between atoms: _143  and  _144
REMARK   65  A    between atoms: _143  and  _146
REMARK   66  A    between atoms: _146  and  _147
REMARK   67  A    between atoms: _150  and  _152
REMARK   68  A    between atoms: _152  and  _153
REMARK   69  A    between atoms: _152  and  _155
REMARK   70  A    between atoms: _155  and  _156
REMARK   71  A    between atoms: _167  and  _168
REMARK   72  A    between atoms: _173  and  _175
REMARK   73  A    between atoms: _175  and  _176
REMARK   74  A    between atoms: _175  and  _178
REMARK   75  A    between atoms: _178  and  _179
REMARK   76  A    between atoms: _184  and  _186
REMARK   77  A    between atoms: _186  and  _187
REMARK   78  A    between atoms: _186  and  _189
REMARK   79  A    between atoms: _189  and  _190
REMARK   80  A    between atoms: _193  and  _195
REMARK   81  A    between atoms: _195  and  _196
REMARK   82  A    between atoms: _195  and  _198
REMARK   83  A    between atoms: _198  and  _199
REMARK   84  A    between atoms: _199  and  _200
REMARK   85  A    between atoms: _200  and  _201
REMARK   86  A    between atoms: _210  and  _212
REMARK   87  A    between atoms: _212  and  _213
REMARK   88  A    between atoms: _212  and  _215
REMARK   89  A    between atoms: _215  and  _216
REMARK   90  A    between atoms: _219  and  _221
REMARK   91  A    between atoms: _221  and  _222
REMARK   92  A    between atoms: _221  and  _224
REMARK   93  A    between atoms: _224  and  _225
REMARK   94  A    between atoms: _225  and  _226
REMARK   95  A    between atoms: _229  and  _231
REMARK   96  A    between atoms: _231  and  _232
REMARK   97  A    between atoms: _231  and  _234
REMARK   98  A    between atoms: _234  and  _235
REMARK   99  A    between atoms: _235  and  _236
REMARK  100  A    between atoms: _236  and  _237
REMARK  101  A    between atoms: _237  and  _238
REMARK  102  A    between atoms: _242  and  _244
REMARK  103  A    between atoms: _244  and  _245
REMARK  104  A    between atoms: _248  and  _250
REMARK  105  A    between atoms: _250  and  _251
REMARK  106  A    between atoms: _250  and  _253
REMARK  107  A    between atoms: _253  and  _254
REMARK  108  A    between atoms: _254  and  _255
REMARK  109  A    between atoms: _258  and  _260
REMARK  110  A    between atoms: _260  and  _261
REMARK  111  A    between atoms: _260  and  _263
REMARK  112  A    between atoms: _263  and  _264
REMARK  113  A    between atoms: _266  and  _268
REMARK  114  A    between atoms: _268  and  _269
REMARK  115  A    between atoms: _268  and  _271
REMARK  116  A    between atoms: _274  and  _276
REMARK  117  A    between atoms: _276  and  _277
REMARK  118  A    between atoms: _276  and  _279
REMARK  119  A    between atoms: _279  and  _280
REMARK  120  A    between atoms: _280  and  _281
REMARK  121  A    between atoms: _284  and  _286
REMARK  122  A    between atoms: _286  and  _287
REMARK  123  A    between atoms: _286  and  _289
REMARK  124  A    between atoms: _289  and  _290
REMARK  125  A    between atoms: _295  and  _297
REMARK  126  A    between atoms: _297  and  _298
REMARK  127  A    between atoms: _297  and  _300
REMARK  128  A    between atoms: _300  and  _301
REMARK  129  A    between atoms: _306  and  _308
REMARK  130  A    between atoms: _308  and  _309
REMARK  131  A    between atoms: _308  and  _311
REMARK  132  A    between atoms: _311  and  _312
REMARK  133  A    between atoms: _318  and  _320
REMARK  134  A    between atoms: _320  and  _321
REMARK  135  A    between atoms: _320  and  _323
REMARK  136  A    between atoms: _323  and  _324
REMARK  137  A    between atoms: _329  and  _330
REMARK  138  A    between atoms: _332  and  _334
REMARK  139  A    between atoms: _334  and  _335
REMARK  140  A    between atoms: _334  and  _337
REMARK  141  A    between atoms: _337  and  _338
REMARK  142  A    between atoms: _343  and  _344
REMARK  143  A    between atoms: _346  and  _348
REMARK  144  A    between atoms: _348  and  _349
REMARK  145  A    between atoms: _348  and  _351
REMARK  146  A    between atoms: _351  and  _352
REMARK  147  A    between atoms: _355  and  _357
REMARK  148  A    between atoms: _357  and  _358
REMARK  149  A    between atoms: _357  and  _360
REMARK  150  A    between atoms: _360  and  _361
REMARK  151  A    between atoms: _364  and  _366
REMARK  152  A    between atoms: _366  and  _367
REMARK  153  A    between atoms: _366  and  _369
REMARK  154  A    between atoms: _369  and  _370
REMARK  155  A    between atoms: _370  and  _371
REMARK  156  A    between atoms: _371  and  _372
REMARK  157  A    between atoms: _372  and  _373
REMARK  158  A    between atoms: _377  and  _379
REMARK  159  A    between atoms: _379  and  _380
REMARK  160  A    between atoms: _383  and  _385
REMARK  161  A    between atoms: _385  and  _386
REMARK  162  A    between atoms: _385  and  _388
REMARK  163  A    between atoms: _388  and  _389
REMARK  164  A    between atoms: _392  and  _394
REMARK  165  A    between atoms: _394  and  _395
REMARK  166  A    between atoms: _394  and  _397
REMARK  167  A    between atoms: _397  and  _398
REMARK  168  A    between atoms: _401  and  _403
REMARK  169  A    between atoms: _403  and  _404
REMARK  170  A    between atoms: _403  and  _406
REMARK  171  A    between atoms: _409  and  _411
REMARK  172  A    between atoms: _411  and  _412
REMARK  173  A    between atoms: _411  and  _414
REMARK  174  A    between atoms: _414  and  _415
REMARK  175  A    between atoms: _420  and  _422
REMARK  176  A    between atoms: _422  and  _423
REMARK  177  A    between atoms: _422  and  _425
REMARK  178  A    between atoms: _425  and  _426
REMARK  179  A    between atoms: _431  and  _433
REMARK  180  A    between atoms: _433  and  _434
REMARK  181  A    between atoms: _437  and  _438
REMARK  182  A    between atoms: _443  and  _445
REMARK  183  A    between atoms: _445  and  _446
REMARK  184  A    between atoms: _445  and  _448
REMARK  185  A    between atoms: _448  and  _449
REMARK  186  A    between atoms: _459  and  _461
REMARK  187  A    between atoms: _461  and  _462
REMARK  188  A    between atoms: _465  and  _467
REMARK  189  A    between atoms: _467  and  _468
REMARK  190  A    between atoms: _467  and  _470
REMARK  191  A    between atoms: _470  and  _471
REMARK  192  A    between atoms: _476  and  _477
REMARK  193  A    between atoms: _479  and  _481
REMARK  194  A    between atoms: _481  and  _482
REMARK  195  A    between atoms: _481  and  _484
REMARK  196  A    between atoms: _484  and  _485
REMARK  197  A    between atoms: _491  and  _493
REMARK  198  A    between atoms: _493  and  _494
REMARK  199  A    between atoms: _493  and  _496
REMARK  200  A    between atoms: _496  and  _497
REMARK  201  A    between atoms: _500  and  _502
REMARK  202  A    between atoms: _502  and  _503
REMARK  203  A    between atoms: _505  and  _507
REMARK  204  A    between atoms: _507  and  _508
REMARK  205  A    between atoms: _507  and  _510
REMARK  206  A    between atoms: _513  and  _515
REMARK  207  A    between atoms: _515  and  _516
REMARK  208  A    between atoms: _515  and  _518
REMARK  209  A    between atoms: _518  and  _519
REMARK  210  A    between atoms: _519  and  _520
REMARK  211  A    between atoms: _520  and  _521
REMARK  212  A    between atoms: _521  and  _522
REMARK  213  A    between atoms: _526  and  _528
REMARK  214  A    between atoms: _528  and  _529
REMARK  215  A    between atoms: _528  and  _531
REMARK  216  A    between atoms: _531  and  _532
REMARK  217  A    between atoms: _532  and  _533
REMARK  218  A    between atoms: _533  and  _534
REMARK  219  A    between atoms: _543  and  _545
REMARK  220  A    between atoms: _545  and  _546
REMARK  221  A    between atoms: _545  and  _548
REMARK  222  A    between atoms: _548  and  _549
REMARK  223  A    between atoms: _549  and  _550
REMARK  224  A    between atoms: _553  and  _555
REMARK  225  A    between atoms: _555  and  _556
REMARK  226  A    between atoms: _555  and  _558
REMARK  227  A    between atoms: _558  and  _559
REMARK  228  A    between atoms: _559  and  _560
REMARK  229  A    between atoms: _563  and  _564
REMARK  230  A    between atoms: _569  and  _571
REMARK  231  A    between atoms: _571  and  _572
REMARK  232  A    between atoms: _571  and  _574
REMARK  233  A    between atoms: _574  and  _575
REMARK  234  A    between atoms: _575  and  _576
REMARK  235  A    between atoms: _578  and  _580
REMARK  236  A    between atoms: _580  and  _581
REMARK  237  A    between atoms: _583  and  _585
REMARK  238  A    between atoms: _585  and  _586
REMARK  239  A    between atoms: _585  and  _588
REMARK  240  A    between atoms: _591  and  _593
REMARK  241  A    between atoms: _593  and  _594
REMARK  242  A    between atoms: _593  and  _596
REMARK  243  A    between atoms: _596  and  _597
REMARK  244  A    between atoms: _607  and  _609
REMARK  245  A    between atoms: _609  and  _610
REMARK  246  A    between atoms: _609  and  _612
REMARK  247  A    between atoms: _612  and  _613
REMARK  248  A    between atoms: _613  and  _614
REMARK  249  A    between atoms: _618  and  _619
REMARK  250  A    between atoms: _624  and  _626
REMARK  251  A    between atoms: _626  and  _627
REMARK  252  A    between atoms: _626  and  _629
REMARK  253  A    between atoms: _629  and  _630
REMARK  254  A    between atoms: _633  and  _635
REMARK  255  A    between atoms: _635  and  _636
REMARK  256  A    between atoms: _635  and  _638
REMARK  257  A    between atoms: _638  and  _639
REMARK  258  A    between atoms: _644  and  _646
REMARK  259  A    between atoms: _646  and  _647
REMARK  260  A    between atoms: _646  and  _649
REMARK  261  A    between atoms: _649  and  _650
REMARK                            x       y       z     vdW  Elec       q    Type
REMARK                         _______ _______ _______ _____ _____    ______ ____
ROOT
ATOM      1  O   HOH     1       9.929  10.681  11.290  0.00  0.00    +0.000 OA
ENDROOT
TORSDOF 0
REMARK  Name = ../refined-set-2016/2zym/2zym_pocket.pdb
REMARK  261 active torsions:
REMARK  status: ('A' for Active; 'I' for Inactive)
REMARK    1  A    between atoms: _1  and  _3
REMARK    2  A    between atoms: _3  and  _4
REMARK    3  A    between atoms: _3  and  _6
REMARK    4  A    between atoms: _6  and  _7
REMARK    5  A    between atoms: _7  and  _8
REMARK    6  A    between atoms: _11  and  _13
REMARK    7  A    between atoms: _13  and  _14
REMARK    8  A    between atoms: _13  and  _16
REMARK    9  A    between atoms: _16  and  _17
REMARK   10  A    between atoms: _22  and  _24
REMARK   11  A    between atoms: _24  and  _25
REMARK   12  A    between atoms: _28  and  _30
REMARK   13  A    between atoms: _30  and  _31
REMARK   14  A    between atoms: _30  and  _33
REMARK   15  A    between atoms: _33  and  _34
REMARK   16  A    between atoms: _37  and  _39
REMARK   17  A    between atoms: _39  and  _40
REMARK   18  A    between atoms: _39  and  _42
REMARK   19  A    between atoms: _42  and  _43
REMARK   20  A    between atoms: _43  and  _44
REMARK   21  A    between atoms: _49  and  _51
REMARK   22  A    between atoms: _51  and  _52
REMARK   23  A    between atoms: _51  and  _54
REMARK   24  A    between atoms: _57  and  _59
REMARK   25  A    between atoms: _59  and  _60
REMARK   26  A    between atoms: _63  and  _65
REMARK   27  A    between atoms: _65  and  _66
REMARK   28  A    between atoms: _65  and  _68
REMARK   29  A    between atoms: _68  and  _69
REMARK   30  A    between atoms: _72  and  _74
REMARK   31  A    between atoms: _74  and  _75
REMARK   32  A    between atoms: _74  and  _77
REMARK   33  A    between atoms: _77  and  _78
REMARK   34  A    between atoms: _81  and  _83
REMARK   35  A    between atoms: _83  and  _84
REMARK   36  A    between atoms: _83  and  _86
REMARK   37  A    between atoms: _86  and  _87
REMARK   38  A    between atoms: _87  and  _88
REMARK   39  A    between atoms: _88  and  _89
REMARK   40  A    between atoms: _89  and  _90
REMARK   41  A    between atoms: _94  and  _96
REMARK   42  A    between atoms: _96  and  _97
REMARK   43  A    between atoms: _96  and  _99
REMARK   44  A    between atoms: _99  and  _100
REMARK   45  A    between atoms: _100  and  _101
REMARK   46  A    between atoms: _106  and  _108
REMARK   47  A    between atoms: _108  and  _109
REMARK   48  A    between atoms: _108  and  _111
REMARK   49  A    between atoms: _111  and  _112
REMARK   50  A    between atoms: _112  and  _113
REMARK   51  A    between atoms: _118  and  _120
REMARK   52  A    between atoms: _120  and  _121
REMARK   53  A    between atoms: _120  and  _123
REMARK   54  A    between atoms: _123  and  _124
REMARK   55  A    between atoms: _124  and  _125
REMARK   56  A    between atoms: _128  and  _130
REMARK   57  A    between atoms: _130  and  _131
REMARK   58  A    between atoms: _130  and  _133
REMARK   59  A    between atoms: _133  and  _134
REMARK   60  A    between atoms: _134  and  _135
REMARK   61  A    between atoms: _135  and  _136
REMARK   62  A    between atoms: _136  and  _137
REMARK   63  A    between atoms: _141  and  _143
REMARK   64  A    between atoms: _143  and  _144
REMARK   65  A    between atoms: _143  and  _146
REMARK   66  A    between atoms: _146  and  _147
REMARK   67  A    between atoms: _150  and  _152
REMARK   68  A    between atoms: _152  and  _153
REMARK   69  A    between atoms: _152  and  _155
REMARK   70  A    between atoms: _155  and  _156
REMARK   71  A    between atoms: _167  and  _168
REMARK   72  A    between atoms: _173  and  _175
REMARK   73  A    between atoms: _175  and  _176
REMARK   74  A    between atoms: _175  and  _178
REMARK   75  A    between atoms: _178  and  _179
REMARK   76  A    between atoms: _184  and  _186
REMARK   77  A    between atoms: _186  and  _187
REMARK   78  A    between atoms: _186  and  _189
REMARK   79  A    between atoms: _189  and  _190
REMARK   80  A    between atoms: _193  and  _195
REMARK   81  A    between atoms: _195  and  _196
REMARK   82  A    between atoms: _195  and  _198
REMARK   83  A    between atoms: _198  and  _199
REMARK   84  A    between atoms: _199  and  _200
REMARK   85  A    between atoms: _200  and  _201
REMARK   86  A    between atoms: _210  and  _212
REMARK   87  A    between atoms: _212  and  _213
REMARK   88  A    between atoms: _212  and  _215
REMARK   89  A    between atoms: _215  and  _216
REMARK   90  A    between atoms: _219  and  _221
REMARK   91  A    between atoms: _221  and  _222
REMARK   92  A    between atoms: _221  and  _224
REMARK   93  A    between atoms: _224  and  _225
REMARK   94  A    between atoms: _225  and  _226
REMARK   95  A    between atoms: _229  and  _231
REMARK   96  A    between atoms: _231  and  _232
REMARK   97  A    between atoms: _231  and  _234
REMARK   98  A    between atoms: _234  and  _235
REMARK   99  A    between atoms: _235  and  _236
REMARK  100  A    between atoms: _236  and  _237
REMARK  101  A    between atoms: _237  and  _238
REMARK  102  A    between atoms: _242  and  _244
REMARK  103  A    between atoms: _244  and  _245
REMARK  104  A    between atoms: _248  and  _250
REMARK  105  A    between atoms: _250  and  _251
REMARK  106  A    between atoms: _250  and  _253
REMARK  107  A    between atoms: _253  and  _254
REMARK  108  A    between atoms: _254  and  _255
REMARK  109  A    between atoms: _258  and  _260
REMARK  110  A    between atoms: _260  and  _261
REMARK  111  A    between atoms: _260  and  _263
REMARK  112  A    between atoms: _263  and  _264
REMARK  113  A    between atoms: _266  and  _268
REMARK  114  A    between atoms: _268  and  _269
REMARK  115  A    between atoms: _268  and  _271
REMARK  116  A    between atoms: _274  and  _276
REMARK  117  A    between atoms: _276  and  _277
REMARK  118  A    between atoms: _276  and  _279
REMARK  119  A    between atoms: _279  and  _280
REMARK  120  A    between atoms: _280  and  _281
REMARK  121  A    between atoms: _284  and  _286
REMARK  122  A    between atoms: _286  and  _287
REMARK  123  A    between atoms: _286  and  _289
REMARK  124  A    between atoms: _289  and  _290
REMARK  125  A    between atoms: _295  and  _297
REMARK  126  A    between atoms: _297  and  _298
REMARK  127  A    between atoms: _297  and  _300
REMARK  128  A    between atoms: _300  and  _301
REMARK  129  A    between atoms: _306  and  _308
REMARK  130  A    between atoms: _308  and  _309
REMARK  131  A    between atoms: _308  and  _311
REMARK  132  A    between atoms: _311  and  _312
REMARK  133  A    between atoms: _318  and  _320
REMARK  134  A    between atoms: _320  and  _321
REMARK  135  A    between atoms: _320  and  _323
REMARK  136  A    between atoms: _323  and  _324
REMARK  137  A    between atoms: _329  and  _330
REMARK  138  A    between atoms: _332  and  _334
REMARK  139  A    between atoms: _334  and  _335
REMARK  140  A    between atoms: _334  and  _337
REMARK  141  A    between atoms: _337  and  _338
REMARK  142  A    between atoms: _343  and  _344
REMARK  143  A    between atoms: _346  and  _348
REMARK  144  A    between atoms: _348  and  _349
REMARK  145  A    between atoms: _348  and  _351
REMARK  146  A    between atoms: _351  and  _352
REMARK  147  A    between atoms: _355  and  _357
REMARK  148  A    between atoms: _357  and  _358
REMARK  149  A    between atoms: _357  and  _360
REMARK  150  A    between atoms: _360  and  _361
REMARK  151  A    between atoms: _364  and  _366
REMARK  152  A    between atoms: _366  and  _367
REMARK  153  A    between atoms: _366  and  _369
REMARK  154  A    between atoms: _369  and  _370
REMARK  155  A    between atoms: _370  and  _371
REMARK  156  A    between atoms: _371  and  _372
REMARK  157  A    between atoms: _372  and  _373
REMARK  158  A    between atoms: _377  and  _379
REMARK  159  A    between atoms: _379  and  _380
REMARK  160  A    between atoms: _383  and  _385
REMARK  161  A    between atoms: _385  and  _386
REMARK  162  A    between atoms: _385  and  _388
REMARK  163  A    between atoms: _388  and  _389
REMARK  164  A    between atoms: _392  and  _394
REMARK  165  A    between atoms: _394  and  _395
REMARK  166  A    between atoms: _394  and  _397
REMARK  167  A    between atoms: _397  and  _398
REMARK  168  A    between atoms: _401  and  _403
REMARK  169  A    between atoms: _403  and  _404
REMARK  170  A    between atoms: _403  and  _406
REMARK  171  A    between atoms: _409  and  _411
REMARK  172  A    between atoms: _411  and  _412
REMARK  173  A    between atoms: _411  and  _414
REMARK  174  A    between atoms: _414  and  _415
REMARK  175  A    between atoms: _420  and  _422
REMARK  176  A    between atoms: _422  and  _423
REMARK  177  A    between atoms: _422  and  _425
REMARK  178  A    between atoms: _425  and  _426
REMARK  179  A    between atoms: _431  and  _433
REMARK  180  A    between atoms: _433  and  _434
REMARK  181  A    between atoms: _437  and  _438
REMARK  182  A    between atoms: _443  and  _445
REMARK  183  A    between atoms: _445  and  _446
REMARK  184  A    between atoms: _445  and  _448
REMARK  185  A    between atoms: _448  and  _449
REMARK  186  A    between atoms: _459  and  _461
REMARK  187  A    between atoms: _461  and  _462
REMARK  188  A    between atoms: _465  and  _467
REMARK  189  A    between atoms: _467  and  _468
REMARK  190  A    between atoms: _467  and  _470
REMARK  191  A    between atoms: _470  and  _471
REMARK  192  A    between atoms: _476  and  _477
REMARK  193  A    between atoms: _479  and  _481
REMARK  194  A    between atoms: _481  and  _482
REMARK  195  A    between atoms: _481  and  _484
REMARK  196  A    between atoms: _484  and  _485
REMARK  197  A    between atoms: _491  and  _493
REMARK  198  A    between atoms: _493  and  _494
REMARK  199  A    between atoms: _493  and  _496
REMARK  200  A    between atoms: _496  and  _497
REMARK  201  A    between atoms: _500  and  _502
REMARK  202  A    between atoms: _502  and  _503
REMARK  203  A    between atoms: _505  and  _507
REMARK  204  A    between atoms: _507  and  _508
REMARK  205  A    between atoms: _507  and  _510
REMARK  206  A    between atoms: _513  and  _515
REMARK  207  A    between atoms: _515  and  _516
REMARK  208  A    between atoms: _515  and  _518
REMARK  209  A    between atoms: _518  and  _519
REMARK  210  A    between atoms: _519  and  _520
REMARK  211  A    between atoms: _520  and  _521
REMARK  212  A    between atoms: _521  and  _522
REMARK  213  A    between atoms: _526  and  _528
REMARK  214  A    between atoms: _528  and  _529
REMARK  215  A    between atoms: _528  and  _531
REMARK  216  A    between atoms: _531  and  _532
REMARK  217  A    between atoms: _532  and  _533
REMARK  218  A    between atoms: _533  and  _534
REMARK  219  A    between atoms: _543  and  _545
REMARK  220  A    between atoms: _545  and  _546
REMARK  221  A    between atoms: _545  and  _548
REMARK  222  A    between atoms: _548  and  _549
REMARK  223  A    between atoms: _549  and  _550
REMARK  224  A    between atoms: _553  and  _555
REMARK  225  A    between atoms: _555  and  _556
REMARK  226  A    between atoms: _555  and  _558
REMARK  227  A    between atoms: _558  and  _559
REMARK  228  A    between atoms: _559  and  _560
REMARK  229  A    between atoms: _563  and  _564
REMARK  230  A    between atoms: _569  and  _571
REMARK  231  A    between atoms: _571  and  _572
REMARK  232  A    between atoms: _571  and  _574
REMARK  233  A    between atoms: _574  and  _575
REMARK  234  A    between atoms: _575  and  _576
REMARK  235  A    between atoms: _578  and  _580
REMARK  236  A    between atoms: _580  and  _581
REMARK  237  A    between atoms: _583  and  _585
REMARK  238  A    between atoms: _585  and  _586
REMARK  239  A    between atoms: _585  and  _588
REMARK  240  A    between atoms: _591  and  _593
REMARK  241  A    between atoms: _593  and  _594
REMARK  242  A    between atoms: _593  and  _596
REMARK  243  A    between atoms: _596  and  _597
REMARK  244  A    between atoms: _607  and  _609
REMARK  245  A    between atoms: _609  and  _610
REMARK  246  A    between atoms: _609  and  _612
REMARK  247  A    between atoms: _612  and  _613
REMARK  248  A    between atoms: _613  and  _614
REMARK  249  A    between atoms: _618  and  _619
REMARK  250  A    between atoms: _624  and  _626
REMARK  251  A    between atoms: _626  and  _627
REMARK  252  A    between atoms: _626  and  _629
REMARK  253  A    between atoms: _629  and  _630
REMARK  254  A    between atoms: _633  and  _635
REMARK  255  A    between atoms: _635  and  _636
REMARK  256  A    between atoms: _635  and  _638
REMARK  257  A    between atoms: _638  and  _639
REMARK  258  A    between atoms: _644  and  _646
REMARK  259  A    between atoms: _646  and  _647
REMARK  260  A    between atoms: _646  and  _649
REMARK  261  A    between atoms: _649  and  _650
REMARK                            x       y       z     vdW  Elec       q    Type
REMARK                         _______ _______ _______ _____ _____    ______ ____
ROOT
ATOM      1  O   HOH     1      18.161  12.623  16.432  0.00  0.00    +0.000 OA
ENDROOT
TORSDOF 0
REMARK  Name = ../refined-set-2016/2zym/2zym_pocket.pdb
REMARK  261 active torsions:
REMARK  status: ('A' for Active; 'I' for Inactive)
REMARK    1  A    between atoms: _1  and  _3
REMARK    2  A    between atoms: _3  and  _4
REMARK    3  A    between atoms: _3  and  _6
REMARK    4  A    between atoms: _6  and  _7
REMARK    5  A    between atoms: _7  and  _8
REMARK    6  A    between atoms: _11  and  _13
REMARK    7  A    between atoms: _13  and  _14
REMARK    8  A    between atoms: _13  and  _16
REMARK    9  A    between atoms: _16  and  _17
REMARK   10  A    between atoms: _22  and  _24
REMARK   11  A    between atoms: _24  and  _25
REMARK   12  A    between atoms: _28  and  _30
REMARK   13  A    between atoms: _30  and  _31
REMARK   14  A    between atoms: _30  and  _33
REMARK   15  A    between atoms: _33  and  _34
REMARK   16  A    between atoms: _37  and  _39
REMARK   17  A    between atoms: _39  and  _40
REMARK   18  A    between atoms: _39  and  _42
REMARK   19  A    between atoms: _42  and  _43
REMARK   20  A    between atoms: _43  and  _44
REMARK   21  A    between atoms: _49  and  _51
REMARK   22  A    between atoms: _51  and  _52
REMARK   23  A    between atoms: _51  and  _54
REMARK   24  A    between atoms: _57  and  _59
REMARK   25  A    between atoms: _59  and  _60
REMARK   26  A    between atoms: _63  and  _65
REMARK   27  A    between atoms: _65  and  _66
REMARK   28  A    between atoms: _65  and  _68
REMARK   29  A    between atoms: _68  and  _69
REMARK   30  A    between atoms: _72  and  _74
REMARK   31  A    between atoms: _74  and  _75
REMARK   32  A    between atoms: _74  and  _77
REMARK   33  A    between atoms: _77  and  _78
REMARK   34  A    between atoms: _81  and  _83
REMARK   35  A    between atoms: _83  and  _84
REMARK   36  A    between atoms: _83  and  _86
REMARK   37  A    between atoms: _86  and  _87
REMARK   38  A    between atoms: _87  and  _88
REMARK   39  A    between atoms: _88  and  _89
REMARK   40  A    between atoms: _89  and  _90
REMARK   41  A    between atoms: _94  and  _96
REMARK   42  A    between atoms: _96  and  _97
REMARK   43  A    between atoms: _96  and  _99
REMARK   44  A    between atoms: _99  and  _100
REMARK   45  A    between atoms: _100  and  _101
REMARK   46  A    between atoms: _106  and  _108
REMARK   47  A    between atoms: _108  and  _109
REMARK   48  A    between atoms: _108  and  _111
REMARK   49  A    between atoms: _111  and  _112
REMARK   50  A    between atoms: _112  and  _113
REMARK   51  A    between atoms: _118  and  _120
REMARK   52  A    between atoms: _120  and  _121
REMARK   53  A    between atoms: _120  and  _123
REMARK   54  A    between atoms: _123  and  _124
REMARK   55  A    between atoms: _124  and  _125
REMARK   56  A    between atoms: _128  and  _130
REMARK   57  A    between atoms: _130  and  _131
REMARK   58  A    between atoms: _130  and  _133
REMARK   59  A    between atoms: _133  and  _134
REMARK   60  A    between atoms: _134  and  _135
REMARK   61  A    between atoms: _135  and  _136
REMARK   62  A    between atoms: _136  and  _137
REMARK   63  A    between atoms: _141  and  _143
REMARK   64  A    between atoms: _143  and  _144
REMARK   65  A    between atoms: _143  and  _146
REMARK   66  A    between atoms: _146  and  _147
REMARK   67  A    between atoms: _150  and  _152
REMARK   68  A    between atoms: _152  and  _153
REMARK   69  A    between atoms: _152  and  _155
REMARK   70  A    between atoms: _155  and  _156
REMARK   71  A    between atoms: _167  and  _168
REMARK   72  A    between atoms: _173  and  _175
REMARK   73  A    between atoms: _175  and  _176
REMARK   74  A    between atoms: _175  and  _178
REMARK   75  A    between atoms: _178  and  _179
REMARK   76  A    between atoms: _184  and  _186
REMARK   77  A    between atoms: _186  and  _187
REMARK   78  A    between atoms: _186  and  _189
REMARK   79  A    between atoms: _189  and  _190
REMARK   80  A    between atoms: _193  and  _195
REMARK   81  A    between atoms: _195  and  _196
REMARK   82  A    between atoms: _195  and  _198
REMARK   83  A    between atoms: _198  and  _199
REMARK   84  A    between atoms: _199  and  _200
REMARK   85  A    between atoms: _200  and  _201
REMARK   86  A    between atoms: _210  and  _212
REMARK   87  A    between atoms: _212  and  _213
REMARK   88  A    between atoms: _212  and  _215
REMARK   89  A    between atoms: _215  and  _216
REMARK   90  A    between atoms: _219  and  _221
REMARK   91  A    between atoms: _221  and  _222
REMARK   92  A    between atoms: _221  and  _224
REMARK   93  A    between atoms: _224  and  _225
REMARK   94  A    between atoms: _225  and  _226
REMARK   95  A    between atoms: _229  and  _231
REMARK   96  A    between atoms: _231  and  _232
REMARK   97  A    between atoms: _231  and  _234
REMARK   98  A    between atoms: _234  and  _235
REMARK   99  A    between atoms: _235  and  _236
REMARK  100  A    between atoms: _236  and  _237
REMARK  101  A    between atoms: _237  and  _238
REMARK  102  A    between atoms: _242  and  _244
REMARK  103  A    between atoms: _244  and  _245
REMARK  104  A    between atoms: _248  and  _250
REMARK  105  A    between atoms: _250  and  _251
REMARK  106  A    between atoms: _250  and  _253
REMARK  107  A    between atoms: _253  and  _254
REMARK  108  A    between atoms: _254  and  _255
REMARK  109  A    between atoms: _258  and  _260
REMARK  110  A    between atoms: _260  and  _261
REMARK  111  A    between atoms: _260  and  _263
REMARK  112  A    between atoms: _263  and  _264
REMARK  113  A    between atoms: _266  and  _268
REMARK  114  A    between atoms: _268  and  _269
REMARK  115  A    between atoms: _268  and  _271
REMARK  116  A    between atoms: _274  and  _276
REMARK  117  A    between atoms: _276  and  _277
REMARK  118  A    between atoms: _276  and  _279
REMARK  119  A    between atoms: _279  and  _280
REMARK  120  A    between atoms: _280  and  _281
REMARK  121  A    between atoms: _284  and  _286
REMARK  122  A    between atoms: _286  and  _287
REMARK  123  A    between atoms: _286  and  _289
REMARK  124  A    between atoms: _289  and  _290
REMARK  125  A    between atoms: _295  and  _297
REMARK  126  A    between atoms: _297  and  _298
REMARK  127  A    between atoms: _297  and  _300
REMARK  128  A    between atoms: _300  and  _301
REMARK  129  A    between atoms: _306  and  _308
REMARK  130  A    between atoms: _308  and  _309
REMARK  131  A    between atoms: _308  and  _311
REMARK  132  A    between atoms: _311  and  _312
REMARK  133  A    between atoms: _318  and  _320
REMARK  134  A    between atoms: _320  and  _321
REMARK  135  A    between atoms: _320  and  _323
REMARK  136  A    between atoms: _323  and  _324
REMARK  137  A    between atoms: _329  and  _330
REMARK  138  A    between atoms: _332  and  _334
REMARK  139  A    between atoms: _334  and  _335
REMARK  140  A    between atoms: _334  and  _337
REMARK  141  A    between atoms: _337  and  _338
REMARK  142  A    between atoms: _343  and  _344
REMARK  143  A    between atoms: _346  and  _348
REMARK  144  A    between atoms: _348  and  _349
REMARK  145  A    between atoms: _348  and  _351
REMARK  146  A    between atoms: _351  and  _352
REMARK  147  A    between atoms: _355  and  _357
REMARK  148  A    between atoms: _357  and  _358
REMARK  149  A    between atoms: _357  and  _360
REMARK  150  A    between atoms: _360  and  _361
REMARK  151  A    between atoms: _364  and  _366
REMARK  152  A    between atoms: _366  and  _367
REMARK  153  A    between atoms: _366  and  _369
REMARK  154  A    between atoms: _369  and  _370
REMARK  155  A    between atoms: _370  and  _371
REMARK  156  A    between atoms: _371  and  _372
REMARK  157  A    between atoms: _372  and  _373
REMARK  158  A    between atoms: _377  and  _379
REMARK  159  A    between atoms: _379  and  _380
REMARK  160  A    between atoms: _383  and  _385
REMARK  161  A    between atoms: _385  and  _386
REMARK  162  A    between atoms: _385  and  _388
REMARK  163  A    between atoms: _388  and  _389
REMARK  164  A    between atoms: _392  and  _394
REMARK  165  A    between atoms: _394  and  _395
REMARK  166  A    between atoms: _394  and  _397
REMARK  167  A    between atoms: _397  and  _398
REMARK  168  A    between atoms: _401  and  _403
REMARK  169  A    between atoms: _403  and  _404
REMARK  170  A    between atoms: _403  and  _406
REMARK  171  A    between atoms: _409  and  _411
REMARK  172  A    between atoms: _411  and  _412
REMARK  173  A    between atoms: _411  and  _414
REMARK  174  A    between atoms: _414  and  _415
REMARK  175  A    between atoms: _420  and  _422
REMARK  176  A    between atoms: _422  and  _423
REMARK  177  A    between atoms: _422  and  _425
REMARK  178  A    between atoms: _425  and  _426
REMARK  179  A    between atoms: _431  and  _433
REMARK  180  A    between atoms: _433  and  _434
REMARK  181  A    between atoms: _437  and  _438
REMARK  182  A    between atoms: _443  and  _445
REMARK  183  A    between atoms: _445  and  _446
REMARK  184  A    between atoms: _445  and  _448
REMARK  185  A    between atoms: _448  and  _449
REMARK  186  A    between atoms: _459  and  _461
REMARK  187  A    between atoms: _461  and  _462
REMARK  188  A    between atoms: _465  and  _467
REMARK  189  A    between atoms: _467  and  _468
REMARK  190  A    between atoms: _467  and  _470
REMARK  191  A    between atoms: _470  and  _471
REMARK  192  A    between atoms: _476  and  _477
REMARK  193  A    between atoms: _479  and  _481
REMARK  194  A    between atoms: _481  and  _482
REMARK  195  A    between atoms: _481  and  _484
REMARK  196  A    between atoms: _484  and  _485
REMARK  197  A    between atoms: _491  and  _493
REMARK  198  A    between atoms: _493  and  _494
REMARK  199  A    between atoms: _493  and  _496
REMARK  200  A    between atoms: _496  and  _497
REMARK  201  A    between atoms: _500  and  _502
REMARK  202  A    between atoms: _502  and  _503
REMARK  203  A    between atoms: _505  and  _507
REMARK  204  A    between atoms: _507  and  _508
REMARK  205  A    between atoms: _507  and  _510
REMARK  206  A    between atoms: _513  and  _515
REMARK  207  A    between atoms: _515  and  _516
REMARK  208  A    between atoms: _515  and  _518
REMARK  209  A    between atoms: _518  and  _519
REMARK  210  A    between atoms: _519  and  _520
REMARK  211  A    between atoms: _520  and  _521
REMARK  212  A    between atoms: _521  and  _522
REMARK  213  A    between atoms: _526  and  _528
REMARK  214  A    between atoms: _528  and  _529
REMARK  215  A    between atoms: _528  and  _531
REMARK  216  A    between atoms: _531  and  _532
REMARK  217  A    between atoms: _532  and  _533
REMARK  218  A    between atoms: _533  and  _534
REMARK  219  A    between atoms: _543  and  _545
REMARK  220  A    between atoms: _545  and  _546
REMARK  221  A    between atoms: _545  and  _548
REMARK  222  A    between atoms: _548  and  _549
REMARK  223  A    between atoms: _549  and  _550
REMARK  224  A    between atoms: _553  and  _555
REMARK  225  A    between atoms: _555  and  _556
REMARK  226  A    between atoms: _555  and  _558
REMARK  227  A    between atoms: _558  and  _559
REMARK  228  A    between atoms: _559  and  _560
REMARK  229  A    between atoms: _563  and  _564
REMARK  230  A    between atoms: _569  and  _571
REMARK  231  A    between atoms: _571  and  _572
REMARK  232  A    between atoms: _571  and  _574
REMARK  233  A    between atoms: _574  and  _575
REMARK  234  A    between atoms: _575  and  _576
REMARK  235  A    between atoms: _578  and  _580
REMARK  236  A    between atoms: _580  and  _581
REMARK  237  A    between atoms: _583  and  _585
REMARK  238  A    between atoms: _585  and  _586
REMARK  239  A    between atoms: _585  and  _588
REMARK  240  A    between atoms: _591  and  _593
REMARK  241  A    between atoms: _593  and  _594
REMARK  242  A    between atoms: _593  and  _596
REMARK  243  A    between atoms: _596  and  _597
REMARK  244  A    between atoms: _607  and  _609
REMARK  245  A    between atoms: _609  and  _610
REMARK  246  A    between atoms: _609  and  _612
REMARK  247  A    between atoms: _612  and  _613
REMARK  248  A    between atoms: _613  and  _614
REMARK  249  A    between atoms: _618  and  _619
REMARK  250  A    between atoms: _624  and  _626
REMARK  251  A    between atoms: _626  and  _627
REMARK  252  A    between atoms: _626  and  _629
REMARK  253  A    between atoms: _629  and  _630
REMARK  254  A    between atoms: _633  and  _635
REMARK  255  A    between atoms: _635  and  _636
REMARK  256  A    between atoms: _635  and  _638
REMARK  257  A    between atoms: _638  and  _639
REMARK  258  A    between atoms: _644  and  _646
REMARK  259  A    between atoms: _646  and  _647
REMARK  260  A    between atoms: _646  and  _649
REMARK  261  A    between atoms: _649  and  _650
REMARK                            x       y       z     vdW  Elec       q    Type
REMARK                         _______ _______ _______ _____ _____    ______ ____
ROOT
ATOM      1  O   HOH     1      20.751  -0.192  13.220  0.00  0.00    +0.000 OA
ENDROOT
TORSDOF 0
REMARK  Name = ../refined-set-2016/2zym/2zym_pocket.pdb
REMARK  261 active torsions:
REMARK  status: ('A' for Active; 'I' for Inactive)
REMARK    1  A    between atoms: _1  and  _3
REMARK    2  A    between atoms: _3  and  _4
REMARK    3  A    between atoms: _3  and  _6
REMARK    4  A    between atoms: _6  and  _7
REMARK    5  A    between atoms: _7  and  _8
REMARK    6  A    between atoms: _11  and  _13
REMARK    7  A    between atoms: _13  and  _14
REMARK    8  A    between atoms: _13  and  _16
REMARK    9  A    between atoms: _16  and  _17
REMARK   10  A    between atoms: _22  and  _24
REMARK   11  A    between atoms: _24  and  _25
REMARK   12  A    between atoms: _28  and  _30
REMARK   13  A    between atoms: _30  and  _31
REMARK   14  A    between atoms: _30  and  _33
REMARK   15  A    between atoms: _33  and  _34
REMARK   16  A    between atoms: _37  and  _39
REMARK   17  A    between atoms: _39  and  _40
REMARK   18  A    between atoms: _39  and  _42
REMARK   19  A    between atoms: _42  and  _43
REMARK   20  A    between atoms: _43  and  _44
REMARK   21  A    between atoms: _49  and  _51
REMARK   22  A    between atoms: _51  and  _52
REMARK   23  A    between atoms: _51  and  _54
REMARK   24  A    between atoms: _57  and  _59
REMARK   25  A    between atoms: _59  and  _60
REMARK   26  A    between atoms: _63  and  _65
REMARK   27  A    between atoms: _65  and  _66
REMARK   28  A    between atoms: _65  and  _68
REMARK   29  A    between atoms: _68  and  _69
REMARK   30  A    between atoms: _72  and  _74
REMARK   31  A    between atoms: _74  and  _75
REMARK   32  A    between atoms: _74  and  _77
REMARK   33  A    between atoms: _77  and  _78
REMARK   34  A    between atoms: _81  and  _83
REMARK   35  A    between atoms: _83  and  _84
REMARK   36  A    between atoms: _83  and  _86
REMARK   37  A    between atoms: _86  and  _87
REMARK   38  A    between atoms: _87  and  _88
REMARK   39  A    between atoms: _88  and  _89
REMARK   40  A    between atoms: _89  and  _90
REMARK   41  A    between atoms: _94  and  _96
REMARK   42  A    between atoms: _96  and  _97
REMARK   43  A    between atoms: _96  and  _99
REMARK   44  A    between atoms: _99  and  _100
REMARK   45  A    between atoms: _100  and  _101
REMARK   46  A    between atoms: _106  and  _108
REMARK   47  A    between atoms: _108  and  _109
REMARK   48  A    between atoms: _108  and  _111
REMARK   49  A    between atoms: _111  and  _112
REMARK   50  A    between atoms: _112  and  _113
REMARK   51  A    between atoms: _118  and  _120
REMARK   52  A    between atoms: _120  and  _121
REMARK   53  A    between atoms: _120  and  _123
REMARK   54  A    between atoms: _123  and  _124
REMARK   55  A    between atoms: _124  and  _125
REMARK   56  A    between atoms: _128  and  _130
REMARK   57  A    between atoms: _130  and  _131
REMARK   58  A    between atoms: _130  and  _133
REMARK   59  A    between atoms: _133  and  _134
REMARK   60  A    between atoms: _134  and  _135
REMARK   61  A    between atoms: _135  and  _136
REMARK   62  A    between atoms: _136  and  _137
REMARK   63  A    between atoms: _141  and  _143
REMARK   64  A    between atoms: _143  and  _144
REMARK   65  A    between atoms: _143  and  _146
REMARK   66  A    between atoms: _146  and  _147
REMARK   67  A    between atoms: _150  and  _152
REMARK   68  A    between atoms: _152  and  _153
REMARK   69  A    between atoms: _152  and  _155
REMARK   70  A    between atoms: _155  and  _156
REMARK   71  A    between atoms: _167  and  _168
REMARK   72  A    between atoms: _173  and  _175
REMARK   73  A    between atoms: _175  and  _176
REMARK   74  A    between atoms: _175  and  _178
REMARK   75  A    between atoms: _178  and  _179
REMARK   76  A    between atoms: _184  and  _186
REMARK   77  A    between atoms: _186  and  _187
REMARK   78  A    between atoms: _186  and  _189
REMARK   79  A    between atoms: _189  and  _190
REMARK   80  A    between atoms: _193  and  _195
REMARK   81  A    between atoms: _195  and  _196
REMARK   82  A    between atoms: _195  and  _198
REMARK   83  A    between atoms: _198  and  _199
REMARK   84  A    between atoms: _199  and  _200
REMARK   85  A    between atoms: _200  and  _201
REMARK   86  A    between atoms: _210  and  _212
REMARK   87  A    between atoms: _212  and  _213
REMARK   88  A    between atoms: _212  and  _215
REMARK   89  A    between atoms: _215  and  _216
REMARK   90  A    between atoms: _219  and  _221
REMARK   91  A    between atoms: _221  and  _222
REMARK   92  A    between atoms: _221  and  _224
REMARK   93  A    between atoms: _224  and  _225
REMARK   94  A    between atoms: _225  and  _226
REMARK   95  A    between atoms: _229  and  _231
REMARK   96  A    between atoms: _231  and  _232
REMARK   97  A    between atoms: _231  and  _234
REMARK   98  A    between atoms: _234  and  _235
REMARK   99  A    between atoms: _235  and  _236
REMARK  100  A    between atoms: _236  and  _237
REMARK  101  A    between atoms: _237  and  _238
REMARK  102  A    between atoms: _242  and  _244
REMARK  103  A    between atoms: _244  and  _245
REMARK  104  A    between atoms: _248  and  _250
REMARK  105  A    between atoms: _250  and  _251
REMARK  106  A    between atoms: _250  and  _253
REMARK  107  A    between atoms: _253  and  _254
REMARK  108  A    between atoms: _254  and  _255
REMARK  109  A    between atoms: _258  and  _260
REMARK  110  A    between atoms: _260  and  _261
REMARK  111  A    between atoms: _260  and  _263
REMARK  112  A    between atoms: _263  and  _264
REMARK  113  A    between atoms: _266  and  _268
REMARK  114  A    between atoms: _268  and  _269
REMARK  115  A    between atoms: _268  and  _271
REMARK  116  A    between atoms: _274  and  _276
REMARK  117  A    between atoms: _276  and  _277
REMARK  118  A    between atoms: _276  and  _279
REMARK  119  A    between atoms: _279  and  _280
REMARK  120  A    between atoms: _280  and  _281
REMARK  121  A    between atoms: _284  and  _286
REMARK  122  A    between atoms: _286  and  _287
REMARK  123  A    between atoms: _286  and  _289
REMARK  124  A    between atoms: _289  and  _290
REMARK  125  A    between atoms: _295  and  _297
REMARK  126  A    between atoms: _297  and  _298
REMARK  127  A    between atoms: _297  and  _300
REMARK  128  A    between atoms: _300  and  _301
REMARK  129  A    between atoms: _306  and  _308
REMARK  130  A    between atoms: _308  and  _309
REMARK  131  A    between atoms: _308  and  _311
REMARK  132  A    between atoms: _311  and  _312
REMARK  133  A    between atoms: _318  and  _320
REMARK  134  A    between atoms: _320  and  _321
REMARK  135  A    between atoms: _320  and  _323
REMARK  136  A    between atoms: _323  and  _324
REMARK  137  A    between atoms: _329  and  _330
REMARK  138  A    between atoms: _332  and  _334
REMARK  139  A    between atoms: _334  and  _335
REMARK  140  A    between atoms: _334  and  _337
REMARK  141  A    between atoms: _337  and  _338
REMARK  142  A    between atoms: _343  and  _344
REMARK  143  A    between atoms: _346  and  _348
REMARK  144  A    between atoms: _348  and  _349
REMARK  145  A    between atoms: _348  and  _351
REMARK  146  A    between atoms: _351  and  _352
REMARK  147  A    between atoms: _355  and  _357
REMARK  148  A    between atoms: _357  and  _358
REMARK  149  A    between atoms: _357  and  _360
REMARK  150  A    between atoms: _360  and  _361
REMARK  151  A    between atoms: _364  and  _366
REMARK  152  A    between atoms: _366  and  _367
REMARK  153  A    between atoms: _366  and  _369
REMARK  154  A    between atoms: _369  and  _370
REMARK  155  A    between atoms: _370  and  _371
REMARK  156  A    between atoms: _371  and  _372
REMARK  157  A    between atoms: _372  and  _373
REMARK  158  A    between atoms: _377  and  _379
REMARK  159  A    between atoms: _379  and  _380
REMARK  160  A    between atoms: _383  and  _385
REMARK  161  A    between atoms: _385  and  _386
REMARK  162  A    between atoms: _385  and  _388
REMARK  163  A    between atoms: _388  and  _389
REMARK  164  A    between atoms: _392  and  _394
REMARK  165  A    between atoms: _394  and  _395
REMARK  166  A    between atoms: _394  and  _397
REMARK  167  A    between atoms: _397  and  _398
REMARK  168  A    between atoms: _401  and  _403
REMARK  169  A    between atoms: _403  and  _404
REMARK  170  A    between atoms: _403  and  _406
REMARK  171  A    between atoms: _409  and  _411
REMARK  172  A    between atoms: _411  and  _412
REMARK  173  A    between atoms: _411  and  _414
REMARK  174  A    between atoms: _414  and  _415
REMARK  175  A    between atoms: _420  and  _422
REMARK  176  A    between atoms: _422  and  _423
REMARK  177  A    between atoms: _422  and  _425
REMARK  178  A    between atoms: _425  and  _426
REMARK  179  A    between atoms: _431  and  _433
REMARK  180  A    between atoms: _433  and  _434
REMARK  181  A    between atoms: _437  and  _438
REMARK  182  A    between atoms: _443  and  _445
REMARK  183  A    between atoms: _445  and  _446
REMARK  184  A    between atoms: _445  and  _448
REMARK  185  A    between atoms: _448  and  _449
REMARK  186  A    between atoms: _459  and  _461
REMARK  187  A    between atoms: _461  and  _462
REMARK  188  A    between atoms: _465  and  _467
REMARK  189  A    between atoms: _467  and  _468
REMARK  190  A    between atoms: _467  and  _470
REMARK  191  A    between atoms: _470  and  _471
REMARK  192  A    between atoms: _476  and  _477
REMARK  193  A    between atoms: _479  and  _481
REMARK  194  A    between atoms: _481  and  _482
REMARK  195  A    between atoms: _481  and  _484
REMARK  196  A    between atoms: _484  and  _485
REMARK  197  A    between atoms: _491  and  _493
REMARK  198  A    between atoms: _493  and  _494
REMARK  199  A    between atoms: _493  and  _496
REMARK  200  A    between atoms: _496  and  _497
REMARK  201  A    between atoms: _500  and  _502
REMARK  202  A    between atoms: _502  and  _503
REMARK  203  A    between atoms: _505  and  _507
REMARK  204  A    between atoms: _507  and  _508
REMARK  205  A    between atoms: _507  and  _510
REMARK  206  A    between atoms: _513  and  _515
REMARK  207  A    between atoms: _515  and  _516
REMARK  208  A    between atoms: _515  and  _518
REMARK  209  A    between atoms: _518  and  _519
REMARK  210  A    between atoms: _519  and  _520
REMARK  211  A    between atoms: _520  and  _521
REMARK  212  A    between atoms: _521  and  _522
REMARK  213  A    between atoms: _526  and  _528
REMARK  214  A    between atoms: _528  and  _529
REMARK  215  A    between atoms: _528  and  _531
REMARK  216  A    between atoms: _531  and  _532
REMARK  217  A    between atoms: _532  and  _533
REMARK  218  A    between atoms: _533  and  _534
REMARK  219  A    between atoms: _543  and  _545
REMARK  220  A    between atoms: _545  and  _546
REMARK  221  A    between atoms: _545  and  _548
REMARK  222  A    between atoms: _548  and  _549
REMARK  223  A    between atoms: _549  and  _550
REMARK  224  A    between atoms: _553  and  _555
REMARK  225  A    between atoms: _555  and  _556
REMARK  226  A    between atoms: _555  and  _558
REMARK  227  A    between atoms: _558  and  _559
REMARK  228  A    between atoms: _559  and  _560
REMARK  229  A    between atoms: _563  and  _564
REMARK  230  A    between atoms: _569  and  _571
REMARK  231  A    between atoms: _571  and  _572
REMARK  232  A    between atoms: _571  and  _574
REMARK  233  A    between atoms: _574  and  _575
REMARK  234  A    between atoms: _575  and  _576
REMARK  235  A    between atoms: _578  and  _580
REMARK  236  A    between atoms: _580  and  _581
REMARK  237  A    between atoms: _583  and  _585
REMARK  238  A    between atoms: _585  and  _586
REMARK  239  A    between atoms: _585  and  _588
REMARK  240  A    between atoms: _591  and  _593
REMARK  241  A    between atoms: _593  and  _594
REMARK  242  A    between atoms: _593  and  _596
REMARK  243  A    between atoms: _596  and  _597
REMARK  244  A    between atoms: _607  and  _609
REMARK  245  A    between atoms: _609  and  _610
REMARK  246  A    between atoms: _609  and  _612
REMARK  247  A    between atoms: _612  and  _613
REMARK  248  A    between atoms: _613  and  _614
REMARK  249  A    between atoms: _618  and  _619
REMARK  250  A    between atoms: _624  and  _626
REMARK  251  A    between atoms: _626  and  _627
REMARK  252  A    between atoms: _626  and  _629
REMARK  253  A    between atoms: _629  and  _630
REMARK  254  A    between atoms: _633  and  _635
REMARK  255  A    between atoms: _635  and  _636
REMARK  256  A    between atoms: _635  and  _638
REMARK  257  A    between atoms: _638  and  _639
REMARK  258  A    between atoms: _644  and  _646
REMARK  259  A    between atoms: _646  and  _647
REMARK  260  A    between atoms: _646  and  _649
REMARK  261  A    between atoms: _649  and  _650
REMARK                            x       y       z     vdW  Elec       q    Type
REMARK                         _______ _______ _______ _____ _____    ______ ____
ROOT
ATOM      1  O   HOH     1      13.947   1.229  25.316  0.00  0.00    +0.000 OA
ENDROOT
TORSDOF 0
REMARK  Name = ../refined-set-2016/2zym/2zym_pocket.pdb
REMARK  261 active torsions:
REMARK  status: ('A' for Active; 'I' for Inactive)
REMARK    1  A    between atoms: _1  and  _3
REMARK    2  A    between atoms: _3  and  _4
REMARK    3  A    between atoms: _3  and  _6
REMARK    4  A    between atoms: _6  and  _7
REMARK    5  A    between atoms: _7  and  _8
REMARK    6  A    between atoms: _11  and  _13
REMARK    7  A    between atoms: _13  and  _14
REMARK    8  A    between atoms: _13  and  _16
REMARK    9  A    between atoms: _16  and  _17
REMARK   10  A    between atoms: _22  and  _24
REMARK   11  A    between atoms: _24  and  _25
REMARK   12  A    between atoms: _28  and  _30
REMARK   13  A    between atoms: _30  and  _31
REMARK   14  A    between atoms: _30  and  _33
REMARK   15  A    between atoms: _33  and  _34
REMARK   16  A    between atoms: _37  and  _39
REMARK   17  A    between atoms: _39  and  _40
REMARK   18  A    between atoms: _39  and  _42
REMARK   19  A    between atoms: _42  and  _43
REMARK   20  A    between atoms: _43  and  _44
REMARK   21  A    between atoms: _49  and  _51
REMARK   22  A    between atoms: _51  and  _52
REMARK   23  A    between atoms: _51  and  _54
REMARK   24  A    between atoms: _57  and  _59
REMARK   25  A    between atoms: _59  and  _60
REMARK   26  A    between atoms: _63  and  _65
REMARK   27  A    between atoms: _65  and  _66
REMARK   28  A    between atoms: _65  and  _68
REMARK   29  A    between atoms: _68  and  _69
REMARK   30  A    between atoms: _72  and  _74
REMARK   31  A    between atoms: _74  and  _75
REMARK   32  A    between atoms: _74  and  _77
REMARK   33  A    between atoms: _77  and  _78
REMARK   34  A    between atoms: _81  and  _83
REMARK   35  A    between atoms: _83  and  _84
REMARK   36  A    between atoms: _83  and  _86
REMARK   37  A    between atoms: _86  and  _87
REMARK   38  A    between atoms: _87  and  _88
REMARK   39  A    between atoms: _88  and  _89
REMARK   40  A    between atoms: _89  and  _90
REMARK   41  A    between atoms: _94  and  _96
REMARK   42  A    between atoms: _96  and  _97
REMARK   43  A    between atoms: _96  and  _99
REMARK   44  A    between atoms: _99  and  _100
REMARK   45  A    between atoms: _100  and  _101
REMARK   46  A    between atoms: _106  and  _108
REMARK   47  A    between atoms: _108  and  _109
REMARK   48  A    between atoms: _108  and  _111
REMARK   49  A    between atoms: _111  and  _112
REMARK   50  A    between atoms: _112  and  _113
REMARK   51  A    between atoms: _118  and  _120
REMARK   52  A    between atoms: _120  and  _121
REMARK   53  A    between atoms: _120  and  _123
REMARK   54  A    between atoms: _123  and  _124
REMARK   55  A    between atoms: _124  and  _125
REMARK   56  A    between atoms: _128  and  _130
REMARK   57  A    between atoms: _130  and  _131
REMARK   58  A    between atoms: _130  and  _133
REMARK   59  A    between atoms: _133  and  _134
REMARK   60  A    between atoms: _134  and  _135
REMARK   61  A    between atoms: _135  and  _136
REMARK   62  A    between atoms: _136  and  _137
REMARK   63  A    between atoms: _141  and  _143
REMARK   64  A    between atoms: _143  and  _144
REMARK   65  A    between atoms: _143  and  _146
REMARK   66  A    between atoms: _146  and  _147
REMARK   67  A    between atoms: _150  and  _152
REMARK   68  A    between atoms: _152  and  _153
REMARK   69  A    between atoms: _152  and  _155
REMARK   70  A    between atoms: _155  and  _156
REMARK   71  A    between atoms: _167  and  _168
REMARK   72  A    between atoms: _173  and  _175
REMARK   73  A    between atoms: _175  and  _176
REMARK   74  A    between atoms: _175  and  _178
REMARK   75  A    between atoms: _178  and  _179
REMARK   76  A    between atoms: _184  and  _186
REMARK   77  A    between atoms: _186  and  _187
REMARK   78  A    between atoms: _186  and  _189
REMARK   79  A    between atoms: _189  and  _190
REMARK   80  A    between atoms: _193  and  _195
REMARK   81  A    between atoms: _195  and  _196
REMARK   82  A    between atoms: _195  and  _198
REMARK   83  A    between atoms: _198  and  _199
REMARK   84  A    between atoms: _199  and  _200
REMARK   85  A    between atoms: _200  and  _201
REMARK   86  A    between atoms: _210  and  _212
REMARK   87  A    between atoms: _212  and  _213
REMARK   88  A    between atoms: _212  and  _215
REMARK   89  A    between atoms: _215  and  _216
REMARK   90  A    between atoms: _219  and  _221
REMARK   91  A    between atoms: _221  and  _222
REMARK   92  A    between atoms: _221  and  _224
REMARK   93  A    between atoms: _224  and  _225
REMARK   94  A    between atoms: _225  and  _226
REMARK   95  A    between atoms: _229  and  _231
REMARK   96  A    between atoms: _231  and  _232
REMARK   97  A    between atoms: _231  and  _234
REMARK   98  A    between atoms: _234  and  _235
REMARK   99  A    between atoms: _235  and  _236
REMARK  100  A    between atoms: _236  and  _237
REMARK  101  A    between atoms: _237  and  _238
REMARK  102  A    between atoms: _242  and  _244
REMARK  103  A    between atoms: _244  and  _245
REMARK  104  A    between atoms: _248  and  _250
REMARK  105  A    between atoms: _250  and  _251
REMARK  106  A    between atoms: _250  and  _253
REMARK  107  A    between atoms: _253  and  _254
REMARK  108  A    between atoms: _254  and  _255
REMARK  109  A    between atoms: _258  and  _260
REMARK  110  A    between atoms: _260  and  _261
REMARK  111  A    between atoms: _260  and  _263
REMARK  112  A    between atoms: _263  and  _264
REMARK  113  A    between atoms: _266  and  _268
REMARK  114  A    between atoms: _268  and  _269
REMARK  115  A    between atoms: _268  and  _271
REMARK  116  A    between atoms: _274  and  _276
REMARK  117  A    between atoms: _276  and  _277
REMARK  118  A    between atoms: _276  and  _279
REMARK  119  A    between atoms: _279  and  _280
REMARK  120  A    between atoms: _280  and  _281
REMARK  121  A    between atoms: _284  and  _286
REMARK  122  A    between atoms: _286  and  _287
REMARK  123  A    between atoms: _286  and  _289
REMARK  124  A    between atoms: _289  and  _290
REMARK  125  A    between atoms: _295  and  _297
REMARK  126  A    between atoms: _297  and  _298
REMARK  127  A    between atoms: _297  and  _300
REMARK  128  A    between atoms: _300  and  _301
REMARK  129  A    between atoms: _306  and  _308
REMARK  130  A    between atoms: _308  and  _309
REMARK  131  A    between atoms: _308  and  _311
REMARK  132  A    between atoms: _311  and  _312
REMARK  133  A    between atoms: _318  and  _320
REMARK  134  A    between atoms: _320  and  _321
REMARK  135  A    between atoms: _320  and  _323
REMARK  136  A    between atoms: _323  and  _324
REMARK  137  A    between atoms: _329  and  _330
REMARK  138  A    between atoms: _332  and  _334
REMARK  139  A    between atoms: _334  and  _335
REMARK  140  A    between atoms: _334  and  _337
REMARK  141  A    between atoms: _337  and  _338
REMARK  142  A    between atoms: _343  and  _344
REMARK  143  A    between atoms: _346  and  _348
REMARK  144  A    between atoms: _348  and  _349
REMARK  145  A    between atoms: _348  and  _351
REMARK  146  A    between atoms: _351  and  _352
REMARK  147  A    between atoms: _355  and  _357
REMARK  148  A    between atoms: _357  and  _358
REMARK  149  A    between atoms: _357  and  _360
REMARK  150  A    between atoms: _360  and  _361
REMARK  151  A    between atoms: _364  and  _366
REMARK  152  A    between atoms: _366  and  _367
REMARK  153  A    between atoms: _366  and  _369
REMARK  154  A    between atoms: _369  and  _370
REMARK  155  A    between atoms: _370  and  _371
REMARK  156  A    between atoms: _371  and  _372
REMARK  157  A    between atoms: _372  and  _373
REMARK  158  A    between atoms: _377  and  _379
REMARK  159  A    between atoms: _379  and  _380
REMARK  160  A    between atoms: _383  and  _385
REMARK  161  A    between atoms: _385  and  _386
REMARK  162  A    between atoms: _385  and  _388
REMARK  163  A    between atoms: _388  and  _389
REMARK  164  A    between atoms: _392  and  _394
REMARK  165  A    between atoms: _394  and  _395
REMARK  166  A    between atoms: _394  and  _397
REMARK  167  A    between atoms: _397  and  _398
REMARK  168  A    between atoms: _401  and  _403
REMARK  169  A    between atoms: _403  and  _404
REMARK  170  A    between atoms: _403  and  _406
REMARK  171  A    between atoms: _409  and  _411
REMARK  172  A    between atoms: _411  and  _412
REMARK  173  A    between atoms: _411  and  _414
REMARK  174  A    between atoms: _414  and  _415
REMARK  175  A    between atoms: _420  and  _422
REMARK  176  A    between atoms: _422  and  _423
REMARK  177  A    between atoms: _422  and  _425
REMARK  178  A    between atoms: _425  and  _426
REMARK  179  A    between atoms: _431  and  _433
REMARK  180  A    between atoms: _433  and  _434
REMARK  181  A    between atoms: _437  and  _438
REMARK  182  A    between atoms: _443  and  _445
REMARK  183  A    between atoms: _445  and  _446
REMARK  184  A    between atoms: _445  and  _448
REMARK  185  A    between atoms: _448  and  _449
REMARK  186  A    between atoms: _459  and  _461
REMARK  187  A    between atoms: _461  and  _462
REMARK  188  A    between atoms: _465  and  _467
REMARK  189  A    between atoms: _467  and  _468
REMARK  190  A    between atoms: _467  and  _470
REMARK  191  A    between atoms: _470  and  _471
REMARK  192  A    between atoms: _476  and  _477
REMARK  193  A    between atoms: _479  and  _481
REMARK  194  A    between atoms: _481  and  _482
REMARK  195  A    between atoms: _481  and  _484
REMARK  196  A    between atoms: _484  and  _485
REMARK  197  A    between atoms: _491  and  _493
REMARK  198  A    between atoms: _493  and  _494
REMARK  199  A    between atoms: _493  and  _496
REMARK  200  A    between atoms: _496  and  _497
REMARK  201  A    between atoms: _500  and  _502
REMARK  202  A    between atoms: _502  and  _503
REMARK  203  A    between atoms: _505  and  _507
REMARK  204  A    between atoms: _507  and  _508
REMARK  205  A    between atoms: _507  and  _510
REMARK  206  A    between atoms: _513  and  _515
REMARK  207  A    between atoms: _515  and  _516
REMARK  208  A    between atoms: _515  and  _518
REMARK  209  A    between atoms: _518  and  _519
REMARK  210  A    between atoms: _519  and  _520
REMARK  211  A    between atoms: _520  and  _521
REMARK  212  A    between atoms: _521  and  _522
REMARK  213  A    between atoms: _526  and  _528
REMARK  214  A    between atoms: _528  and  _529
REMARK  215  A    between atoms: _528  and  _531
REMARK  216  A    between atoms: _531  and  _532
REMARK  217  A    between atoms: _532  and  _533
REMARK  218  A    between atoms: _533  and  _534
REMARK  219  A    between atoms: _543  and  _545
REMARK  220  A    between atoms: _545  and  _546
REMARK  221  A    between atoms: _545  and  _548
REMARK  222  A    between atoms: _548  and  _549
REMARK  223  A    between atoms: _549  and  _550
REMARK  224  A    between atoms: _553  and  _555
REMARK  225  A    between atoms: _555  and  _556
REMARK  226  A    between atoms: _555  and  _558
REMARK  227  A    between atoms: _558  and  _559
REMARK  228  A    between atoms: _559  and  _560
REMARK  229  A    between atoms: _563  and  _564
REMARK  230  A    between atoms: _569  and  _571
REMARK  231  A    between atoms: _571  and  _572
REMARK  232  A    between atoms: _571  and  _574
REMARK  233  A    between atoms: _574  and  _575
REMARK  234  A    between atoms: _575  and  _576
REMARK  235  A    between atoms: _578  and  _580
REMARK  236  A    between atoms: _580  and  _581
REMARK  237  A    between atoms: _583  and  _585
REMARK  238  A    between atoms: _585  and  _586
REMARK  239  A    between atoms: _585  and  _588
REMARK  240  A    between atoms: _591  and  _593
REMARK  241  A    between atoms: _593  and  _594
REMARK  242  A    between atoms: _593  and  _596
REMARK  243  A    between atoms: _596  and  _597
REMARK  244  A    between atoms: _607  and  _609
REMARK  245  A    between atoms: _609  and  _610
REMARK  246  A    between atoms: _609  and  _612
REMARK  247  A    between atoms: _612  and  _613
REMARK  248  A    between atoms: _613  and  _614
REMARK  249  A    between atoms: _618  and  _619
REMARK  250  A    between atoms: _624  and  _626
REMARK  251  A    between atoms: _626  and  _627
REMARK  252  A    between atoms: _626  and  _629
REMARK  253  A    between atoms: _629  and  _630
REMARK  254  A    between atoms: _633  and  _635
REMARK  255  A    between atoms: _635  and  _636
REMARK  256  A    between atoms: _635  and  _638
REMARK  257  A    between atoms: _638  and  _639
REMARK  258  A    between atoms: _644  and  _646
REMARK  259  A    between atoms: _646  and  _647
REMARK  260  A    between atoms: _646  and  _649
REMARK  261  A    between atoms: _649  and  _650
REMARK                            x       y       z     vdW  Elec       q    Type
REMARK                         _______ _______ _______ _____ _____    ______ ____
ROOT
ATOM      1  O   HOH     1      23.255  -1.084  21.996  0.00  0.00    +0.000 OA
ENDROOT
TORSDOF 0
REMARK  Name = ../refined-set-2016/2zym/2zym_pocket.pdb
REMARK  261 active torsions:
REMARK  status: ('A' for Active; 'I' for Inactive)
REMARK    1  A    between atoms: _1  and  _3
REMARK    2  A    between atoms: _3  and  _4
REMARK    3  A    between atoms: _3  and  _6
REMARK    4  A    between atoms: _6  and  _7
REMARK    5  A    between atoms: _7  and  _8
REMARK    6  A    between atoms: _11  and  _13
REMARK    7  A    between atoms: _13  and  _14
REMARK    8  A    between atoms: _13  and  _16
REMARK    9  A    between atoms: _16  and  _17
REMARK   10  A    between atoms: _22  and  _24
REMARK   11  A    between atoms: _24  and  _25
REMARK   12  A    between atoms: _28  and  _30
REMARK   13  A    between atoms: _30  and  _31
REMARK   14  A    between atoms: _30  and  _33
REMARK   15  A    between atoms: _33  and  _34
REMARK   16  A    between atoms: _37  and  _39
REMARK   17  A    between atoms: _39  and  _40
REMARK   18  A    between atoms: _39  and  _42
REMARK   19  A    between atoms: _42  and  _43
REMARK   20  A    between atoms: _43  and  _44
REMARK   21  A    between atoms: _49  and  _51
REMARK   22  A    between atoms: _51  and  _52
REMARK   23  A    between atoms: _51  and  _54
REMARK   24  A    between atoms: _57  and  _59
REMARK   25  A    between atoms: _59  and  _60
REMARK   26  A    between atoms: _63  and  _65
REMARK   27  A    between atoms: _65  and  _66
REMARK   28  A    between atoms: _65  and  _68
REMARK   29  A    between atoms: _68  and  _69
REMARK   30  A    between atoms: _72  and  _74
REMARK   31  A    between atoms: _74  and  _75
REMARK   32  A    between atoms: _74  and  _77
REMARK   33  A    between atoms: _77  and  _78
REMARK   34  A    between atoms: _81  and  _83
REMARK   35  A    between atoms: _83  and  _84
REMARK   36  A    between atoms: _83  and  _86
REMARK   37  A    between atoms: _86  and  _87
REMARK   38  A    between atoms: _87  and  _88
REMARK   39  A    between atoms: _88  and  _89
REMARK   40  A    between atoms: _89  and  _90
REMARK   41  A    between atoms: _94  and  _96
REMARK   42  A    between atoms: _96  and  _97
REMARK   43  A    between atoms: _96  and  _99
REMARK   44  A    between atoms: _99  and  _100
REMARK   45  A    between atoms: _100  and  _101
REMARK   46  A    between atoms: _106  and  _108
REMARK   47  A    between atoms: _108  and  _109
REMARK   48  A    between atoms: _108  and  _111
REMARK   49  A    between atoms: _111  and  _112
REMARK   50  A    between atoms: _112  and  _113
REMARK   51  A    between atoms: _118  and  _120
REMARK   52  A    between atoms: _120  and  _121
REMARK   53  A    between atoms: _120  and  _123
REMARK   54  A    between atoms: _123  and  _124
REMARK   55  A    between atoms: _124  and  _125
REMARK   56  A    between atoms: _128  and  _130
REMARK   57  A    between atoms: _130  and  _131
REMARK   58  A    between atoms: _130  and  _133
REMARK   59  A    between atoms: _133  and  _134
REMARK   60  A    between atoms: _134  and  _135
REMARK   61  A    between atoms: _135  and  _136
REMARK   62  A    between atoms: _136  and  _137
REMARK   63  A    between atoms: _141  and  _143
REMARK   64  A    between atoms: _143  and  _144
REMARK   65  A    between atoms: _143  and  _146
REMARK   66  A    between atoms: _146  and  _147
REMARK   67  A    between atoms: _150  and  _152
REMARK   68  A    between atoms: _152  and  _153
REMARK   69  A    between atoms: _152  and  _155
REMARK   70  A    between atoms: _155  and  _156
REMARK   71  A    between atoms: _167  and  _168
REMARK   72  A    between atoms: _173  and  _175
REMARK   73  A    between atoms: _175  and  _176
REMARK   74  A    between atoms: _175  and  _178
REMARK   75  A    between atoms: _178  and  _179
REMARK   76  A    between atoms: _184  and  _186
REMARK   77  A    between atoms: _186  and  _187
REMARK   78  A    between atoms: _186  and  _189
REMARK   79  A    between atoms: _189  and  _190
REMARK   80  A    between atoms: _193  and  _195
REMARK   81  A    between atoms: _195  and  _196
REMARK   82  A    between atoms: _195  and  _198
REMARK   83  A    between atoms: _198  and  _199
REMARK   84  A    between atoms: _199  and  _200
REMARK   85  A    between atoms: _200  and  _201
REMARK   86  A    between atoms: _210  and  _212
REMARK   87  A    between atoms: _212  and  _213
REMARK   88  A    between atoms: _212  and  _215
REMARK   89  A    between atoms: _215  and  _216
REMARK   90  A    between atoms: _219  and  _221
REMARK   91  A    between atoms: _221  and  _222
REMARK   92  A    between atoms: _221  and  _224
REMARK   93  A    between atoms: _224  and  _225
REMARK   94  A    between atoms: _225  and  _226
REMARK   95  A    between atoms: _229  and  _231
REMARK   96  A    between atoms: _231  and  _232
REMARK   97  A    between atoms: _231  and  _234
REMARK   98  A    between atoms: _234  and  _235
REMARK   99  A    between atoms: _235  and  _236
REMARK  100  A    between atoms: _236  and  _237
REMARK  101  A    between atoms: _237  and  _238
REMARK  102  A    between atoms: _242  and  _244
REMARK  103  A    between atoms: _244  and  _245
REMARK  104  A    between atoms: _248  and  _250
REMARK  105  A    between atoms: _250  and  _251
REMARK  106  A    between atoms: _250  and  _253
REMARK  107  A    between atoms: _253  and  _254
REMARK  108  A    between atoms: _254  and  _255
REMARK  109  A    between atoms: _258  and  _260
REMARK  110  A    between atoms: _260  and  _261
REMARK  111  A    between atoms: _260  and  _263
REMARK  112  A    between atoms: _263  and  _264
REMARK  113  A    between atoms: _266  and  _268
REMARK  114  A    between atoms: _268  and  _269
REMARK  115  A    between atoms: _268  and  _271
REMARK  116  A    between atoms: _274  and  _276
REMARK  117  A    between atoms: _276  and  _277
REMARK  118  A    between atoms: _276  and  _279
REMARK  119  A    between atoms: _279  and  _280
REMARK  120  A    between atoms: _280  and  _281
REMARK  121  A    between atoms: _284  and  _286
REMARK  122  A    between atoms: _286  and  _287
REMARK  123  A    between atoms: _286  and  _289
REMARK  124  A    between atoms: _289  and  _290
REMARK  125  A    between atoms: _295  and  _297
REMARK  126  A    between atoms: _297  and  _298
REMARK  127  A    between atoms: _297  and  _300
REMARK  128  A    between atoms: _300  and  _301
REMARK  129  A    between atoms: _306  and  _308
REMARK  130  A    between atoms: _308  and  _309
REMARK  131  A    between atoms: _308  and  _311
REMARK  132  A    between atoms: _311  and  _312
REMARK  133  A    between atoms: _318  and  _320
REMARK  134  A    between atoms: _320  and  _321
REMARK  135  A    between atoms: _320  and  _323
REMARK  136  A    between atoms: _323  and  _324
REMARK  137  A    between atoms: _329  and  _330
REMARK  138  A    between atoms: _332  and  _334
REMARK  139  A    between atoms: _334  and  _335
REMARK  140  A    between atoms: _334  and  _337
REMARK  141  A    between atoms: _337  and  _338
REMARK  142  A    between atoms: _343  and  _344
REMARK  143  A    between atoms: _346  and  _348
REMARK  144  A    between atoms: _348  and  _349
REMARK  145  A    between atoms: _348  and  _351
REMARK  146  A    between atoms: _351  and  _352
REMARK  147  A    between atoms: _355  and  _357
REMARK  148  A    between atoms: _357  and  _358
REMARK  149  A    between atoms: _357  and  _360
REMARK  150  A    between atoms: _360  and  _361
REMARK  151  A    between atoms: _364  and  _366
REMARK  152  A    between atoms: _366  and  _367
REMARK  153  A    between atoms: _366  and  _369
REMARK  154  A    between atoms: _369  and  _370
REMARK  155  A    between atoms: _370  and  _371
REMARK  156  A    between atoms: _371  and  _372
REMARK  157  A    between atoms: _372  and  _373
REMARK  158  A    between atoms: _377  and  _379
REMARK  159  A    between atoms: _379  and  _380
REMARK  160  A    between atoms: _383  and  _385
REMARK  161  A    between atoms: _385  and  _386
REMARK  162  A    between atoms: _385  and  _388
REMARK  163  A    between atoms: _388  and  _389
REMARK  164  A    between atoms: _392  and  _394
REMARK  165  A    between atoms: _394  and  _395
REMARK  166  A    between atoms: _394  and  _397
REMARK  167  A    between atoms: _397  and  _398
REMARK  168  A    between atoms: _401  and  _403
REMARK  169  A    between atoms: _403  and  _404
REMARK  170  A    between atoms: _403  and  _406
REMARK  171  A    between atoms: _409  and  _411
REMARK  172  A    between atoms: _411  and  _412
REMARK  173  A    between atoms: _411  and  _414
REMARK  174  A    between atoms: _414  and  _415
REMARK  175  A    between atoms: _420  and  _422
REMARK  176  A    between atoms: _422  and  _423
REMARK  177  A    between atoms: _422  and  _425
REMARK  178  A    between atoms: _425  and  _426
REMARK  179  A    between atoms: _431  and  _433
REMARK  180  A    between atoms: _433  and  _434
REMARK  181  A    between atoms: _437  and  _438
REMARK  182  A    between atoms: _443  and  _445
REMARK  183  A    between atoms: _445  and  _446
REMARK  184  A    between atoms: _445  and  _448
REMARK  185  A    between atoms: _448  and  _449
REMARK  186  A    between atoms: _459  and  _461
REMARK  187  A    between atoms: _461  and  _462
REMARK  188  A    between atoms: _465  and  _467
REMARK  189  A    between atoms: _467  and  _468
REMARK  190  A    between atoms: _467  and  _470
REMARK  191  A    between atoms: _470  and  _471
REMARK  192  A    between atoms: _476  and  _477
REMARK  193  A    between atoms: _479  and  _481
REMARK  194  A    between atoms: _481  and  _482
REMARK  195  A    between atoms: _481  and  _484
REMARK  196  A    between atoms: _484  and  _485
REMARK  197  A    between atoms: _491  and  _493
REMARK  198  A    between atoms: _493  and  _494
REMARK  199  A    between atoms: _493  and  _496
REMARK  200  A    between atoms: _496  and  _497
REMARK  201  A    between atoms: _500  and  _502
REMARK  202  A    between atoms: _502  and  _503
REMARK  203  A    between atoms: _505  and  _507
REMARK  204  A    between atoms: _507  and  _508
REMARK  205  A    between atoms: _507  and  _510
REMARK  206  A    between atoms: _513  and  _515
REMARK  207  A    between atoms: _515  and  _516
REMARK  208  A    between atoms: _515  and  _518
REMARK  209  A    between atoms: _518  and  _519
REMARK  210  A    between atoms: _519  and  _520
REMARK  211  A    between atoms: _520  and  _521
REMARK  212  A    between atoms: _521  and  _522
REMARK  213  A    between atoms: _526  and  _528
REMARK  214  A    between atoms: _528  and  _529
REMARK  215  A    between atoms: _528  and  _531
REMARK  216  A    between atoms: _531  and  _532
REMARK  217  A    between atoms: _532  and  _533
REMARK  218  A    between atoms: _533  and  _534
REMARK  219  A    between atoms: _543  and  _545
REMARK  220  A    between atoms: _545  and  _546
REMARK  221  A    between atoms: _545  and  _548
REMARK  222  A    between atoms: _548  and  _549
REMARK  223  A    between atoms: _549  and  _550
REMARK  224  A    between atoms: _553  and  _555
REMARK  225  A    between atoms: _555  and  _556
REMARK  226  A    between atoms: _555  and  _558
REMARK  227  A    between atoms: _558  and  _559
REMARK  228  A    between atoms: _559  and  _560
REMARK  229  A    between atoms: _563  and  _564
REMARK  230  A    between atoms: _569  and  _571
REMARK  231  A    between atoms: _571  and  _572
REMARK  232  A    between atoms: _571  and  _574
REMARK  233  A    between atoms: _574  and  _575
REMARK  234  A    between atoms: _575  and  _576
REMARK  235  A    between atoms: _578  and  _580
REMARK  236  A    between atoms: _580  and  _581
REMARK  237  A    between atoms: _583  and  _585
REMARK  238  A    between atoms: _585  and  _586
REMARK  239  A    between atoms: _585  and  _588
REMARK  240  A    between atoms: _591  and  _593
REMARK  241  A    between atoms: _593  and  _594
REMARK  242  A    between atoms: _593  and  _596
REMARK  243  A    between atoms: _596  and  _597
REMARK  244  A    between atoms: _607  and  _609
REMARK  245  A    between atoms: _609  and  _610
REMARK  246  A    between atoms: _609  and  _612
REMARK  247  A    between atoms: _612  and  _613
REMARK  248  A    between atoms: _613  and  _614
REMARK  249  A    between atoms: _618  and  _619
REMARK  250  A    between atoms: _624  and  _626
REMARK  251  A    between atoms: _626  and  _627
REMARK  252  A    between atoms: _626  and  _629
REMARK  253  A    between atoms: _629  and  _630
REMARK  254  A    between atoms: _633  and  _635
REMARK  255  A    between atoms: _635  and  _636
REMARK  256  A    between atoms: _635  and  _638
REMARK  257  A    between atoms: _638  and  _639
REMARK  258  A    between atoms: _644  and  _646
REMARK  259  A    between atoms: _646  and  _647
REMARK  260  A    between atoms: _646  and  _649
REMARK  261  A    between atoms: _649  and  _650
REMARK                            x       y       z     vdW  Elec       q    Type
REMARK                         _______ _______ _______ _____ _____    ______ ____
ROOT
ATOM      1  O   HOH     1      17.630  -5.393  22.249  0.00  0.00    +0.000 OA
ENDROOT
TORSDOF 0
REMARK  Name = ../refined-set-2016/2zym/2zym_pocket.pdb
REMARK  261 active torsions:
REMARK  status: ('A' for Active; 'I' for Inactive)
REMARK    1  A    between atoms: _1  and  _3
REMARK    2  A    between atoms: _3  and  _4
REMARK    3  A    between atoms: _3  and  _6
REMARK    4  A    between atoms: _6  and  _7
REMARK    5  A    between atoms: _7  and  _8
REMARK    6  A    between atoms: _11  and  _13
REMARK    7  A    between atoms: _13  and  _14
REMARK    8  A    between atoms: _13  and  _16
REMARK    9  A    between atoms: _16  and  _17
REMARK   10  A    between atoms: _22  and  _24
REMARK   11  A    between atoms: _24  and  _25
REMARK   12  A    between atoms: _28  and  _30
REMARK   13  A    between atoms: _30  and  _31
REMARK   14  A    between atoms: _30  and  _33
REMARK   15  A    between atoms: _33  and  _34
REMARK   16  A    between atoms: _37  and  _39
REMARK   17  A    between atoms: _39  and  _40
REMARK   18  A    between atoms: _39  and  _42
REMARK   19  A    between atoms: _42  and  _43
REMARK   20  A    between atoms: _43  and  _44
REMARK   21  A    between atoms: _49  and  _51
REMARK   22  A    between atoms: _51  and  _52
REMARK   23  A    between atoms: _51  and  _54
REMARK   24  A    between atoms: _57  and  _59
REMARK   25  A    between atoms: _59  and  _60
REMARK   26  A    between atoms: _63  and  _65
REMARK   27  A    between atoms: _65  and  _66
REMARK   28  A    between atoms: _65  and  _68
REMARK   29  A    between atoms: _68  and  _69
REMARK   30  A    between atoms: _72  and  _74
REMARK   31  A    between atoms: _74  and  _75
REMARK   32  A    between atoms: _74  and  _77
REMARK   33  A    between atoms: _77  and  _78
REMARK   34  A    between atoms: _81  and  _83
REMARK   35  A    between atoms: _83  and  _84
REMARK   36  A    between atoms: _83  and  _86
REMARK   37  A    between atoms: _86  and  _87
REMARK   38  A    between atoms: _87  and  _88
REMARK   39  A    between atoms: _88  and  _89
REMARK   40  A    between atoms: _89  and  _90
REMARK   41  A    between atoms: _94  and  _96
REMARK   42  A    between atoms: _96  and  _97
REMARK   43  A    between atoms: _96  and  _99
REMARK   44  A    between atoms: _99  and  _100
REMARK   45  A    between atoms: _100  and  _101
REMARK   46  A    between atoms: _106  and  _108
REMARK   47  A    between atoms: _108  and  _109
REMARK   48  A    between atoms: _108  and  _111
REMARK   49  A    between atoms: _111  and  _112
REMARK   50  A    between atoms: _112  and  _113
REMARK   51  A    between atoms: _118  and  _120
REMARK   52  A    between atoms: _120  and  _121
REMARK   53  A    between atoms: _120  and  _123
REMARK   54  A    between atoms: _123  and  _124
REMARK   55  A    between atoms: _124  and  _125
REMARK   56  A    between atoms: _128  and  _130
REMARK   57  A    between atoms: _130  and  _131
REMARK   58  A    between atoms: _130  and  _133
REMARK   59  A    between atoms: _133  and  _134
REMARK   60  A    between atoms: _134  and  _135
REMARK   61  A    between atoms: _135  and  _136
REMARK   62  A    between atoms: _136  and  _137
REMARK   63  A    between atoms: _141  and  _143
REMARK   64  A    between atoms: _143  and  _144
REMARK   65  A    between atoms: _143  and  _146
REMARK   66  A    between atoms: _146  and  _147
REMARK   67  A    between atoms: _150  and  _152
REMARK   68  A    between atoms: _152  and  _153
REMARK   69  A    between atoms: _152  and  _155
REMARK   70  A    between atoms: _155  and  _156
REMARK   71  A    between atoms: _167  and  _168
REMARK   72  A    between atoms: _173  and  _175
REMARK   73  A    between atoms: _175  and  _176
REMARK   74  A    between atoms: _175  and  _178
REMARK   75  A    between atoms: _178  and  _179
REMARK   76  A    between atoms: _184  and  _186
REMARK   77  A    between atoms: _186  and  _187
REMARK   78  A    between atoms: _186  and  _189
REMARK   79  A    between atoms: _189  and  _190
REMARK   80  A    between atoms: _193  and  _195
REMARK   81  A    between atoms: _195  and  _196
REMARK   82  A    between atoms: _195  and  _198
REMARK   83  A    between atoms: _198  and  _199
REMARK   84  A    between atoms: _199  and  _200
REMARK   85  A    between atoms: _200  and  _201
REMARK   86  A    between atoms: _210  and  _212
REMARK   87  A    between atoms: _212  and  _213
REMARK   88  A    between atoms: _212  and  _215
REMARK   89  A    between atoms: _215  and  _216
REMARK   90  A    between atoms: _219  and  _221
REMARK   91  A    between atoms: _221  and  _222
REMARK   92  A    between atoms: _221  and  _224
REMARK   93  A    between atoms: _224  and  _225
REMARK   94  A    between atoms: _225  and  _226
REMARK   95  A    between atoms: _229  and  _231
REMARK   96  A    between atoms: _231  and  _232
REMARK   97  A    between atoms: _231  and  _234
REMARK   98  A    between atoms: _234  and  _235
REMARK   99  A    between atoms: _235  and  _236
REMARK  100  A    between atoms: _236  and  _237
REMARK  101  A    between atoms: _237  and  _238
REMARK  102  A    between atoms: _242  and  _244
REMARK  103  A    between atoms: _244  and  _245
REMARK  104  A    between atoms: _248  and  _250
REMARK  105  A    between atoms: _250  and  _251
REMARK  106  A    between atoms: _250  and  _253
REMARK  107  A    between atoms: _253  and  _254
REMARK  108  A    between atoms: _254  and  _255
REMARK  109  A    between atoms: _258  and  _260
REMARK  110  A    between atoms: _260  and  _261
REMARK  111  A    between atoms: _260  and  _263
REMARK  112  A    between atoms: _263  and  _264
REMARK  113  A    between atoms: _266  and  _268
REMARK  114  A    between atoms: _268  and  _269
REMARK  115  A    between atoms: _268  and  _271
REMARK  116  A    between atoms: _274  and  _276
REMARK  117  A    between atoms: _276  and  _277
REMARK  118  A    between atoms: _276  and  _279
REMARK  119  A    between atoms: _279  and  _280
REMARK  120  A    between atoms: _280  and  _281
REMARK  121  A    between atoms: _284  and  _286
REMARK  122  A    between atoms: _286  and  _287
REMARK  123  A    between atoms: _286  and  _289
REMARK  124  A    between atoms: _289  and  _290
REMARK  125  A    between atoms: _295  and  _297
REMARK  126  A    between atoms: _297  and  _298
REMARK  127  A    between atoms: _297  and  _300
REMARK  128  A    between atoms: _300  and  _301
REMARK  129  A    between atoms: _306  and  _308
REMARK  130  A    between atoms: _308  and  _309
REMARK  131  A    between atoms: _308  and  _311
REMARK  132  A    between atoms: _311  and  _312
REMARK  133  A    between atoms: _318  and  _320
REMARK  134  A    between atoms: _320  and  _321
REMARK  135  A    between atoms: _320  and  _323
REMARK  136  A    between atoms: _323  and  _324
REMARK  137  A    between atoms: _329  and  _330
REMARK  138  A    between atoms: _332  and  _334
REMARK  139  A    between atoms: _334  and  _335
REMARK  140  A    between atoms: _334  and  _337
REMARK  141  A    between atoms: _337  and  _338
REMARK  142  A    between atoms: _343  and  _344
REMARK  143  A    between atoms: _346  and  _348
REMARK  144  A    between atoms: _348  and  _349
REMARK  145  A    between atoms: _348  and  _351
REMARK  146  A    between atoms: _351  and  _352
REMARK  147  A    between atoms: _355  and  _357
REMARK  148  A    between atoms: _357  and  _358
REMARK  149  A    between atoms: _357  and  _360
REMARK  150  A    between atoms: _360  and  _361
REMARK  151  A    between atoms: _364  and  _366
REMARK  152  A    between atoms: _366  and  _367
REMARK  153  A    between atoms: _366  and  _369
REMARK  154  A    between atoms: _369  and  _370
REMARK  155  A    between atoms: _370  and  _371
REMARK  156  A    between atoms: _371  and  _372
REMARK  157  A    between atoms: _372  and  _373
REMARK  158  A    between atoms: _377  and  _379
REMARK  159  A    between atoms: _379  and  _380
REMARK  160  A    between atoms: _383  and  _385
REMARK  161  A    between atoms: _385  and  _386
REMARK  162  A    between atoms: _385  and  _388
REMARK  163  A    between atoms: _388  and  _389
REMARK  164  A    between atoms: _392  and  _394
REMARK  165  A    between atoms: _394  and  _395
REMARK  166  A    between atoms: _394  and  _397
REMARK  167  A    between atoms: _397  and  _398
REMARK  168  A    between atoms: _401  and  _403
REMARK  169  A    between atoms: _403  and  _404
REMARK  170  A    between atoms: _403  and  _406
REMARK  171  A    between atoms: _409  and  _411
REMARK  172  A    between atoms: _411  and  _412
REMARK  173  A    between atoms: _411  and  _414
REMARK  174  A    between atoms: _414  and  _415
REMARK  175  A    between atoms: _420  and  _422
REMARK  176  A    between atoms: _422  and  _423
REMARK  177  A    between atoms: _422  and  _425
REMARK  178  A    between atoms: _425  and  _426
REMARK  179  A    between atoms: _431  and  _433
REMARK  180  A    between atoms: _433  and  _434
REMARK  181  A    between atoms: _437  and  _438
REMARK  182  A    between atoms: _443  and  _445
REMARK  183  A    between atoms: _445  and  _446
REMARK  184  A    between atoms: _445  and  _448
REMARK  185  A    between atoms: _448  and  _449
REMARK  186  A    between atoms: _459  and  _461
REMARK  187  A    between atoms: _461  and  _462
REMARK  188  A    between atoms: _465  and  _467
REMARK  189  A    between atoms: _467  and  _468
REMARK  190  A    between atoms: _467  and  _470
REMARK  191  A    between atoms: _470  and  _471
REMARK  192  A    between atoms: _476  and  _477
REMARK  193  A    between atoms: _479  and  _481
REMARK  194  A    between atoms: _481  and  _482
REMARK  195  A    between atoms: _481  and  _484
REMARK  196  A    between atoms: _484  and  _485
REMARK  197  A    between atoms: _491  and  _493
REMARK  198  A    between atoms: _493  and  _494
REMARK  199  A    between atoms: _493  and  _496
REMARK  200  A    between atoms: _496  and  _497
REMARK  201  A    between atoms: _500  and  _502
REMARK  202  A    between atoms: _502  and  _503
REMARK  203  A    between atoms: _505  and  _507
REMARK  204  A    between atoms: _507  and  _508
REMARK  205  A    between atoms: _507  and  _510
REMARK  206  A    between atoms: _513  and  _515
REMARK  207  A    between atoms: _515  and  _516
REMARK  208  A    between atoms: _515  and  _518
REMARK  209  A    between atoms: _518  and  _519
REMARK  210  A    between atoms: _519  and  _520
REMARK  211  A    between atoms: _520  and  _521
REMARK  212  A    between atoms: _521  and  _522
REMARK  213  A    between atoms: _526  and  _528
REMARK  214  A    between atoms: _528  and  _529
REMARK  215  A    between atoms: _528  and  _531
REMARK  216  A    between atoms: _531  and  _532
REMARK  217  A    between atoms: _532  and  _533
REMARK  218  A    between atoms: _533  and  _534
REMARK  219  A    between atoms: _543  and  _545
REMARK  220  A    between atoms: _545  and  _546
REMARK  221  A    between atoms: _545  and  _548
REMARK  222  A    between atoms: _548  and  _549
REMARK  223  A    between atoms: _549  and  _550
REMARK  224  A    between atoms: _553  and  _555
REMARK  225  A    between atoms: _555  and  _556
REMARK  226  A    between atoms: _555  and  _558
REMARK  227  A    between atoms: _558  and  _559
REMARK  228  A    between atoms: _559  and  _560
REMARK  229  A    between atoms: _563  and  _564
REMARK  230  A    between atoms: _569  and  _571
REMARK  231  A    between atoms: _571  and  _572
REMARK  232  A    between atoms: _571  and  _574
REMARK  233  A    between atoms: _574  and  _575
REMARK  234  A    between atoms: _575  and  _576
REMARK  235  A    between atoms: _578  and  _580
REMARK  236  A    between atoms: _580  and  _581
REMARK  237  A    between atoms: _583  and  _585
REMARK  238  A    between atoms: _585  and  _586
REMARK  239  A    between atoms: _585  and  _588
REMARK  240  A    between atoms: _591  and  _593
REMARK  241  A    between atoms: _593  and  _594
REMARK  242  A    between atoms: _593  and  _596
REMARK  243  A    between atoms: _596  and  _597
REMARK  244  A    between atoms: _607  and  _609
REMARK  245  A    between atoms: _609  and  _610
REMARK  246  A    between atoms: _609  and  _612
REMARK  247  A    between atoms: _612  and  _613
REMARK  248  A    between atoms: _613  and  _614
REMARK  249  A    between atoms: _618  and  _619
REMARK  250  A    between atoms: _624  and  _626
REMARK  251  A    between atoms: _626  and  _627
REMARK  252  A    between atoms: _626  and  _629
REMARK  253  A    between atoms: _629  and  _630
REMARK  254  A    between atoms: _633  and  _635
REMARK  255  A    between atoms: _635  and  _636
REMARK  256  A    between atoms: _635  and  _638
REMARK  257  A    between atoms: _638  and  _639
REMARK  258  A    between atoms: _644  and  _646
REMARK  259  A    between atoms: _646  and  _647
REMARK  260  A    between atoms: _646  and  _649
REMARK  261  A    between atoms: _649  and  _650
REMARK                            x       y       z     vdW  Elec       q    Type
REMARK                         _______ _______ _______ _____ _____    ______ ____
ROOT
ATOM      1  O   HOH     1      15.814  -2.082  13.479  0.00  0.00    +0.000 OA
ENDROOT
TORSDOF 0
REMARK  Name = ../refined-set-2016/2zym/2zym_pocket.pdb
REMARK  261 active torsions:
REMARK  status: ('A' for Active; 'I' for Inactive)
REMARK    1  A    between atoms: _1  and  _3
REMARK    2  A    between atoms: _3  and  _4
REMARK    3  A    between atoms: _3  and  _6
REMARK    4  A    between atoms: _6  and  _7
REMARK    5  A    between atoms: _7  and  _8
REMARK    6  A    between atoms: _11  and  _13
REMARK    7  A    between atoms: _13  and  _14
REMARK    8  A    between atoms: _13  and  _16
REMARK    9  A    between atoms: _16  and  _17
REMARK   10  A    between atoms: _22  and  _24
REMARK   11  A    between atoms: _24  and  _25
REMARK   12  A    between atoms: _28  and  _30
REMARK   13  A    between atoms: _30  and  _31
REMARK   14  A    between atoms: _30  and  _33
REMARK   15  A    between atoms: _33  and  _34
REMARK   16  A    between atoms: _37  and  _39
REMARK   17  A    between atoms: _39  and  _40
REMARK   18  A    between atoms: _39  and  _42
REMARK   19  A    between atoms: _42  and  _43
REMARK   20  A    between atoms: _43  and  _44
REMARK   21  A    between atoms: _49  and  _51
REMARK   22  A    between atoms: _51  and  _52
REMARK   23  A    between atoms: _51  and  _54
REMARK   24  A    between atoms: _57  and  _59
REMARK   25  A    between atoms: _59  and  _60
REMARK   26  A    between atoms: _63  and  _65
REMARK   27  A    between atoms: _65  and  _66
REMARK   28  A    between atoms: _65  and  _68
REMARK   29  A    between atoms: _68  and  _69
REMARK   30  A    between atoms: _72  and  _74
REMARK   31  A    between atoms: _74  and  _75
REMARK   32  A    between atoms: _74  and  _77
REMARK   33  A    between atoms: _77  and  _78
REMARK   34  A    between atoms: _81  and  _83
REMARK   35  A    between atoms: _83  and  _84
REMARK   36  A    between atoms: _83  and  _86
REMARK   37  A    between atoms: _86  and  _87
REMARK   38  A    between atoms: _87  and  _88
REMARK   39  A    between atoms: _88  and  _89
REMARK   40  A    between atoms: _89  and  _90
REMARK   41  A    between atoms: _94  and  _96
REMARK   42  A    between atoms: _96  and  _97
REMARK   43  A    between atoms: _96  and  _99
REMARK   44  A    between atoms: _99  and  _100
REMARK   45  A    between atoms: _100  and  _101
REMARK   46  A    between atoms: _106  and  _108
REMARK   47  A    between atoms: _108  and  _109
REMARK   48  A    between atoms: _108  and  _111
REMARK   49  A    between atoms: _111  and  _112
REMARK   50  A    between atoms: _112  and  _113
REMARK   51  A    between atoms: _118  and  _120
REMARK   52  A    between atoms: _120  and  _121
REMARK   53  A    between atoms: _120  and  _123
REMARK   54  A    between atoms: _123  and  _124
REMARK   55  A    between atoms: _124  and  _125
REMARK   56  A    between atoms: _128  and  _130
REMARK   57  A    between atoms: _130  and  _131
REMARK   58  A    between atoms: _130  and  _133
REMARK   59  A    between atoms: _133  and  _134
REMARK   60  A    between atoms: _134  and  _135
REMARK   61  A    between atoms: _135  and  _136
REMARK   62  A    between atoms: _136  and  _137
REMARK   63  A    between atoms: _141  and  _143
REMARK   64  A    between atoms: _143  and  _144
REMARK   65  A    between atoms: _143  and  _146
REMARK   66  A    between atoms: _146  and  _147
REMARK   67  A    between atoms: _150  and  _152
REMARK   68  A    between atoms: _152  and  _153
REMARK   69  A    between atoms: _152  and  _155
REMARK   70  A    between atoms: _155  and  _156
REMARK   71  A    between atoms: _167  and  _168
REMARK   72  A    between atoms: _173  and  _175
REMARK   73  A    between atoms: _175  and  _176
REMARK   74  A    between atoms: _175  and  _178
REMARK   75  A    between atoms: _178  and  _179
REMARK   76  A    between atoms: _184  and  _186
REMARK   77  A    between atoms: _186  and  _187
REMARK   78  A    between atoms: _186  and  _189
REMARK   79  A    between atoms: _189  and  _190
REMARK   80  A    between atoms: _193  and  _195
REMARK   81  A    between atoms: _195  and  _196
REMARK   82  A    between atoms: _195  and  _198
REMARK   83  A    between atoms: _198  and  _199
REMARK   84  A    between atoms: _199  and  _200
REMARK   85  A    between atoms: _200  and  _201
REMARK   86  A    between atoms: _210  and  _212
REMARK   87  A    between atoms: _212  and  _213
REMARK   88  A    between atoms: _212  and  _215
REMARK   89  A    between atoms: _215  and  _216
REMARK   90  A    between atoms: _219  and  _221
REMARK   91  A    between atoms: _221  and  _222
REMARK   92  A    between atoms: _221  and  _224
REMARK   93  A    between atoms: _224  and  _225
REMARK   94  A    between atoms: _225  and  _226
REMARK   95  A    between atoms: _229  and  _231
REMARK   96  A    between atoms: _231  and  _232
REMARK   97  A    between atoms: _231  and  _234
REMARK   98  A    between atoms: _234  and  _235
REMARK   99  A    between atoms: _235  and  _236
REMARK  100  A    between atoms: _236  and  _237
REMARK  101  A    between atoms: _237  and  _238
REMARK  102  A    between atoms: _242  and  _244
REMARK  103  A    between atoms: _244  and  _245
REMARK  104  A    between atoms: _248  and  _250
REMARK  105  A    between atoms: _250  and  _251
REMARK  106  A    between atoms: _250  and  _253
REMARK  107  A    between atoms: _253  and  _254
REMARK  108  A    between atoms: _254  and  _255
REMARK  109  A    between atoms: _258  and  _260
REMARK  110  A    between atoms: _260  and  _261
REMARK  111  A    between atoms: _260  and  _263
REMARK  112  A    between atoms: _263  and  _264
REMARK  113  A    between atoms: _266  and  _268
REMARK  114  A    between atoms: _268  and  _269
REMARK  115  A    between atoms: _268  and  _271
REMARK  116  A    between atoms: _274  and  _276
REMARK  117  A    between atoms: _276  and  _277
REMARK  118  A    between atoms: _276  and  _279
REMARK  119  A    between atoms: _279  and  _280
REMARK  120  A    between atoms: _280  and  _281
REMARK  121  A    between atoms: _284  and  _286
REMARK  122  A    between atoms: _286  and  _287
REMARK  123  A    between atoms: _286  and  _289
REMARK  124  A    between atoms: _289  and  _290
REMARK  125  A    between atoms: _295  and  _297
REMARK  126  A    between atoms: _297  and  _298
REMARK  127  A    between atoms: _297  and  _300
REMARK  128  A    between atoms: _300  and  _301
REMARK  129  A    between atoms: _306  and  _308
REMARK  130  A    between atoms: _308  and  _309
REMARK  131  A    between atoms: _308  and  _311
REMARK  132  A    between atoms: _311  and  _312
REMARK  133  A    between atoms: _318  and  _320
REMARK  134  A    between atoms: _320  and  _321
REMARK  135  A    between atoms: _320  and  _323
REMARK  136  A    between atoms: _323  and  _324
REMARK  137  A    between atoms: _329  and  _330
REMARK  138  A    between atoms: _332  and  _334
REMARK  139  A    between atoms: _334  and  _335
REMARK  140  A    between atoms: _334  and  _337
REMARK  141  A    between atoms: _337  and  _338
REMARK  142  A    between atoms: _343  and  _344
REMARK  143  A    between atoms: _346  and  _348
REMARK  144  A    between atoms: _348  and  _349
REMARK  145  A    between atoms: _348  and  _351
REMARK  146  A    between atoms: _351  and  _352
REMARK  147  A    between atoms: _355  and  _357
REMARK  148  A    between atoms: _357  and  _358
REMARK  149  A    between atoms: _357  and  _360
REMARK  150  A    between atoms: _360  and  _361
REMARK  151  A    between atoms: _364  and  _366
REMARK  152  A    between atoms: _366  and  _367
REMARK  153  A    between atoms: _366  and  _369
REMARK  154  A    between atoms: _369  and  _370
REMARK  155  A    between atoms: _370  and  _371
REMARK  156  A    between atoms: _371  and  _372
REMARK  157  A    between atoms: _372  and  _373
REMARK  158  A    between atoms: _377  and  _379
REMARK  159  A    between atoms: _379  and  _380
REMARK  160  A    between atoms: _383  and  _385
REMARK  161  A    between atoms: _385  and  _386
REMARK  162  A    between atoms: _385  and  _388
REMARK  163  A    between atoms: _388  and  _389
REMARK  164  A    between atoms: _392  and  _394
REMARK  165  A    between atoms: _394  and  _395
REMARK  166  A    between atoms: _394  and  _397
REMARK  167  A    between atoms: _397  and  _398
REMARK  168  A    between atoms: _401  and  _403
REMARK  169  A    between atoms: _403  and  _404
REMARK  170  A    between atoms: _403  and  _406
REMARK  171  A    between atoms: _409  and  _411
REMARK  172  A    between atoms: _411  and  _412
REMARK  173  A    between atoms: _411  and  _414
REMARK  174  A    between atoms: _414  and  _415
REMARK  175  A    between atoms: _420  and  _422
REMARK  176  A    between atoms: _422  and  _423
REMARK  177  A    between atoms: _422  and  _425
REMARK  178  A    between atoms: _425  and  _426
REMARK  179  A    between atoms: _431  and  _433
REMARK  180  A    between atoms: _433  and  _434
REMARK  181  A    between atoms: _437  and  _438
REMARK  182  A    between atoms: _443  and  _445
REMARK  183  A    between atoms: _445  and  _446
REMARK  184  A    between atoms: _445  and  _448
REMARK  185  A    between atoms: _448  and  _449
REMARK  186  A    between atoms: _459  and  _461
REMARK  187  A    between atoms: _461  and  _462
REMARK  188  A    between atoms: _465  and  _467
REMARK  189  A    between atoms: _467  and  _468
REMARK  190  A    between atoms: _467  and  _470
REMARK  191  A    between atoms: _470  and  _471
REMARK  192  A    between atoms: _476  and  _477
REMARK  193  A    between atoms: _479  and  _481
REMARK  194  A    between atoms: _481  and  _482
REMARK  195  A    between atoms: _481  and  _484
REMARK  196  A    between atoms: _484  and  _485
REMARK  197  A    between atoms: _491  and  _493
REMARK  198  A    between atoms: _493  and  _494
REMARK  199  A    between atoms: _493  and  _496
REMARK  200  A    between atoms: _496  and  _497
REMARK  201  A    between atoms: _500  and  _502
REMARK  202  A    between atoms: _502  and  _503
REMARK  203  A    between atoms: _505  and  _507
REMARK  204  A    between atoms: _507  and  _508
REMARK  205  A    between atoms: _507  and  _510
REMARK  206  A    between atoms: _513  and  _515
REMARK  207  A    between atoms: _515  and  _516
REMARK  208  A    between atoms: _515  and  _518
REMARK  209  A    between atoms: _518  and  _519
REMARK  210  A    between atoms: _519  and  _520
REMARK  211  A    between atoms: _520  and  _521
REMARK  212  A    between atoms: _521  and  _522
REMARK  213  A    between atoms: _526  and  _528
REMARK  214  A    between atoms: _528  and  _529
REMARK  215  A    between atoms: _528  and  _531
REMARK  216  A    between atoms: _531  and  _532
REMARK  217  A    between atoms: _532  and  _533
REMARK  218  A    between atoms: _533  and  _534
REMARK  219  A    between atoms: _543  and  _545
REMARK  220  A    between atoms: _545  and  _546
REMARK  221  A    between atoms: _545  and  _548
REMARK  222  A    between atoms: _548  and  _549
REMARK  223  A    between atoms: _549  and  _550
REMARK  224  A    between atoms: _553  and  _555
REMARK  225  A    between atoms: _555  and  _556
REMARK  226  A    between atoms: _555  and  _558
REMARK  227  A    between atoms: _558  and  _559
REMARK  228  A    between atoms: _559  and  _560
REMARK  229  A    between atoms: _563  and  _564
REMARK  230  A    between atoms: _569  and  _571
REMARK  231  A    between atoms: _571  and  _572
REMARK  232  A    between atoms: _571  and  _574
REMARK  233  A    between atoms: _574  and  _575
REMARK  234  A    between atoms: _575  and  _576
REMARK  235  A    between atoms: _578  and  _580
REMARK  236  A    between atoms: _580  and  _581
REMARK  237  A    between atoms: _583  and  _585
REMARK  238  A    between atoms: _585  and  _586
REMARK  239  A    between atoms: _585  and  _588
REMARK  240  A    between atoms: _591  and  _593
REMARK  241  A    between atoms: _593  and  _594
REMARK  242  A    between atoms: _593  and  _596
REMARK  243  A    between atoms: _596  and  _597
REMARK  244  A    between atoms: _607  and  _609
REMARK  245  A    between atoms: _609  and  _610
REMARK  246  A    between atoms: _609  and  _612
REMARK  247  A    between atoms: _612  and  _613
REMARK  248  A    between atoms: _613  and  _614
REMARK  249  A    between atoms: _618  and  _619
REMARK  250  A    between atoms: _624  and  _626
REMARK  251  A    between atoms: _626  and  _627
REMARK  252  A    between atoms: _626  and  _629
REMARK  253  A    between atoms: _629  and  _630
REMARK  254  A    between atoms: _633  and  _635
REMARK  255  A    between atoms: _635  and  _636
REMARK  256  A    between atoms: _635  and  _638
REMARK  257  A    between atoms: _638  and  _639
REMARK  258  A    between atoms: _644  and  _646
REMARK  259  A    between atoms: _646  and  _647
REMARK  260  A    between atoms: _646  and  _649
REMARK  261  A    between atoms: _649  and  _650
REMARK                            x       y       z     vdW  Elec       q    Type
REMARK                         _______ _______ _______ _____ _____    ______ ____
ROOT
ATOM      1  O   HOH     1      24.089   2.370   8.799  0.00  0.00    +0.000 OA
ENDROOT
TORSDOF 0
REMARK  Name = ../refined-set-2016/2zym/2zym_pocket.pdb
REMARK  261 active torsions:
REMARK  status: ('A' for Active; 'I' for Inactive)
REMARK    1  A    between atoms: _1  and  _3
REMARK    2  A    between atoms: _3  and  _4
REMARK    3  A    between atoms: _3  and  _6
REMARK    4  A    between atoms: _6  and  _7
REMARK    5  A    between atoms: _7  and  _8
REMARK    6  A    between atoms: _11  and  _13
REMARK    7  A    between atoms: _13  and  _14
REMARK    8  A    between atoms: _13  and  _16
REMARK    9  A    between atoms: _16  and  _17
REMARK   10  A    between atoms: _22  and  _24
REMARK   11  A    between atoms: _24  and  _25
REMARK   12  A    between atoms: _28  and  _30
REMARK   13  A    between atoms: _30  and  _31
REMARK   14  A    between atoms: _30  and  _33
REMARK   15  A    between atoms: _33  and  _34
REMARK   16  A    between atoms: _37  and  _39
REMARK   17  A    between atoms: _39  and  _40
REMARK   18  A    between atoms: _39  and  _42
REMARK   19  A    between atoms: _42  and  _43
REMARK   20  A    between atoms: _43  and  _44
REMARK   21  A    between atoms: _49  and  _51
REMARK   22  A    between atoms: _51  and  _52
REMARK   23  A    between atoms: _51  and  _54
REMARK   24  A    between atoms: _57  and  _59
REMARK   25  A    between atoms: _59  and  _60
REMARK   26  A    between atoms: _63  and  _65
REMARK   27  A    between atoms: _65  and  _66
REMARK   28  A    between atoms: _65  and  _68
REMARK   29  A    between atoms: _68  and  _69
REMARK   30  A    between atoms: _72  and  _74
REMARK   31  A    between atoms: _74  and  _75
REMARK   32  A    between atoms: _74  and  _77
REMARK   33  A    between atoms: _77  and  _78
REMARK   34  A    between atoms: _81  and  _83
REMARK   35  A    between atoms: _83  and  _84
REMARK   36  A    between atoms: _83  and  _86
REMARK   37  A    between atoms: _86  and  _87
REMARK   38  A    between atoms: _87  and  _88
REMARK   39  A    between atoms: _88  and  _89
REMARK   40  A    between atoms: _89  and  _90
REMARK   41  A    between atoms: _94  and  _96
REMARK   42  A    between atoms: _96  and  _97
REMARK   43  A    between atoms: _96  and  _99
REMARK   44  A    between atoms: _99  and  _100
REMARK   45  A    between atoms: _100  and  _101
REMARK   46  A    between atoms: _106  and  _108
REMARK   47  A    between atoms: _108  and  _109
REMARK   48  A    between atoms: _108  and  _111
REMARK   49  A    between atoms: _111  and  _112
REMARK   50  A    between atoms: _112  and  _113
REMARK   51  A    between atoms: _118  and  _120
REMARK   52  A    between atoms: _120  and  _121
REMARK   53  A    between atoms: _120  and  _123
REMARK   54  A    between atoms: _123  and  _124
REMARK   55  A    between atoms: _124  and  _125
REMARK   56  A    between atoms: _128  and  _130
REMARK   57  A    between atoms: _130  and  _131
REMARK   58  A    between atoms: _130  and  _133
REMARK   59  A    between atoms: _133  and  _134
REMARK   60  A    between atoms: _134  and  _135
REMARK   61  A    between atoms: _135  and  _136
REMARK   62  A    between atoms: _136  and  _137
REMARK   63  A    between atoms: _141  and  _143
REMARK   64  A    between atoms: _143  and  _144
REMARK   65  A    between atoms: _143  and  _146
REMARK   66  A    between atoms: _146  and  _147
REMARK   67  A    between atoms: _150  and  _152
REMARK   68  A    between atoms: _152  and  _153
REMARK   69  A    between atoms: _152  and  _155
REMARK   70  A    between atoms: _155  and  _156
REMARK   71  A    between atoms: _167  and  _168
REMARK   72  A    between atoms: _173  and  _175
REMARK   73  A    between atoms: _175  and  _176
REMARK   74  A    between atoms: _175  and  _178
REMARK   75  A    between atoms: _178  and  _179
REMARK   76  A    between atoms: _184  and  _186
REMARK   77  A    between atoms: _186  and  _187
REMARK   78  A    between atoms: _186  and  _189
REMARK   79  A    between atoms: _189  and  _190
REMARK   80  A    between atoms: _193  and  _195
REMARK   81  A    between atoms: _195  and  _196
REMARK   82  A    between atoms: _195  and  _198
REMARK   83  A    between atoms: _198  and  _199
REMARK   84  A    between atoms: _199  and  _200
REMARK   85  A    between atoms: _200  and  _201
REMARK   86  A    between atoms: _210  and  _212
REMARK   87  A    between atoms: _212  and  _213
REMARK   88  A    between atoms: _212  and  _215
REMARK   89  A    between atoms: _215  and  _216
REMARK   90  A    between atoms: _219  and  _221
REMARK   91  A    between atoms: _221  and  _222
REMARK   92  A    between atoms: _221  and  _224
REMARK   93  A    between atoms: _224  and  _225
REMARK   94  A    between atoms: _225  and  _226
REMARK   95  A    between atoms: _229  and  _231
REMARK   96  A    between atoms: _231  and  _232
REMARK   97  A    between atoms: _231  and  _234
REMARK   98  A    between atoms: _234  and  _235
REMARK   99  A    between atoms: _235  and  _236
REMARK  100  A    between atoms: _236  and  _237
REMARK  101  A    between atoms: _237  and  _238
REMARK  102  A    between atoms: _242  and  _244
REMARK  103  A    between atoms: _244  and  _245
REMARK  104  A    between atoms: _248  and  _250
REMARK  105  A    between atoms: _250  and  _251
REMARK  106  A    between atoms: _250  and  _253
REMARK  107  A    between atoms: _253  and  _254
REMARK  108  A    between atoms: _254  and  _255
REMARK  109  A    between atoms: _258  and  _260
REMARK  110  A    between atoms: _260  and  _261
REMARK  111  A    between atoms: _260  and  _263
REMARK  112  A    between atoms: _263  and  _264
REMARK  113  A    between atoms: _266  and  _268
REMARK  114  A    between atoms: _268  and  _269
REMARK  115  A    between atoms: _268  and  _271
REMARK  116  A    between atoms: _274  and  _276
REMARK  117  A    between atoms: _276  and  _277
REMARK  118  A    between atoms: _276  and  _279
REMARK  119  A    between atoms: _279  and  _280
REMARK  120  A    between atoms: _280  and  _281
REMARK  121  A    between atoms: _284  and  _286
REMARK  122  A    between atoms: _286  and  _287
REMARK  123  A    between atoms: _286  and  _289
REMARK  124  A    between atoms: _289  and  _290
REMARK  125  A    between atoms: _295  and  _297
REMARK  126  A    between atoms: _297  and  _298
REMARK  127  A    between atoms: _297  and  _300
REMARK  128  A    between atoms: _300  and  _301
REMARK  129  A    between atoms: _306  and  _308
REMARK  130  A    between atoms: _308  and  _309
REMARK  131  A    between atoms: _308  and  _311
REMARK  132  A    between atoms: _311  and  _312
REMARK  133  A    between atoms: _318  and  _320
REMARK  134  A    between atoms: _320  and  _321
REMARK  135  A    between atoms: _320  and  _323
REMARK  136  A    between atoms: _323  and  _324
REMARK  137  A    between atoms: _329  and  _330
REMARK  138  A    between atoms: _332  and  _334
REMARK  139  A    between atoms: _334  and  _335
REMARK  140  A    between atoms: _334  and  _337
REMARK  141  A    between atoms: _337  and  _338
REMARK  142  A    between atoms: _343  and  _344
REMARK  143  A    between atoms: _346  and  _348
REMARK  144  A    between atoms: _348  and  _349
REMARK  145  A    between atoms: _348  and  _351
REMARK  146  A    between atoms: _351  and  _352
REMARK  147  A    between atoms: _355  and  _357
REMARK  148  A    between atoms: _357  and  _358
REMARK  149  A    between atoms: _357  and  _360
REMARK  150  A    between atoms: _360  and  _361
REMARK  151  A    between atoms: _364  and  _366
REMARK  152  A    between atoms: _366  and  _367
REMARK  153  A    between atoms: _366  and  _369
REMARK  154  A    between atoms: _369  and  _370
REMARK  155  A    between atoms: _370  and  _371
REMARK  156  A    between atoms: _371  and  _372
REMARK  157  A    between atoms: _372  and  _373
REMARK  158  A    between atoms: _377  and  _379
REMARK  159  A    between atoms: _379  and  _380
REMARK  160  A    between atoms: _383  and  _385
REMARK  161  A    between atoms: _385  and  _386
REMARK  162  A    between atoms: _385  and  _388
REMARK  163  A    between atoms: _388  and  _389
REMARK  164  A    between atoms: _392  and  _394
REMARK  165  A    between atoms: _394  and  _395
REMARK  166  A    between atoms: _394  and  _397
REMARK  167  A    between atoms: _397  and  _398
REMARK  168  A    between atoms: _401  and  _403
REMARK  169  A    between atoms: _403  and  _404
REMARK  170  A    between atoms: _403  and  _406
REMARK  171  A    between atoms: _409  and  _411
REMARK  172  A    between atoms: _411  and  _412
REMARK  173  A    between atoms: _411  and  _414
REMARK  174  A    between atoms: _414  and  _415
REMARK  175  A    between atoms: _420  and  _422
REMARK  176  A    between atoms: _422  and  _423
REMARK  177  A    between atoms: _422  and  _425
REMARK  178  A    between atoms: _425  and  _426
REMARK  179  A    between atoms: _431  and  _433
REMARK  180  A    between atoms: _433  and  _434
REMARK  181  A    between atoms: _437  and  _438
REMARK  182  A    between atoms: _443  and  _445
REMARK  183  A    between atoms: _445  and  _446
REMARK  184  A    between atoms: _445  and  _448
REMARK  185  A    between atoms: _448  and  _449
REMARK  186  A    between atoms: _459  and  _461
REMARK  187  A    between atoms: _461  and  _462
REMARK  188  A    between atoms: _465  and  _467
REMARK  189  A    between atoms: _467  and  _468
REMARK  190  A    between atoms: _467  and  _470
REMARK  191  A    between atoms: _470  and  _471
REMARK  192  A    between atoms: _476  and  _477
REMARK  193  A    between atoms: _479  and  _481
REMARK  194  A    between atoms: _481  and  _482
REMARK  195  A    between atoms: _481  and  _484
REMARK  196  A    between atoms: _484  and  _485
REMARK  197  A    between atoms: _491  and  _493
REMARK  198  A    between atoms: _493  and  _494
REMARK  199  A    between atoms: _493  and  _496
REMARK  200  A    between atoms: _496  and  _497
REMARK  201  A    between atoms: _500  and  _502
REMARK  202  A    between atoms: _502  and  _503
REMARK  203  A    between atoms: _505  and  _507
REMARK  204  A    between atoms: _507  and  _508
REMARK  205  A    between atoms: _507  and  _510
REMARK  206  A    between atoms: _513  and  _515
REMARK  207  A    between atoms: _515  and  _516
REMARK  208  A    between atoms: _515  and  _518
REMARK  209  A    between atoms: _518  and  _519
REMARK  210  A    between atoms: _519  and  _520
REMARK  211  A    between atoms: _520  and  _521
REMARK  212  A    between atoms: _521  and  _522
REMARK  213  A    between atoms: _526  and  _528
REMARK  214  A    between atoms: _528  and  _529
REMARK  215  A    between atoms: _528  and  _531
REMARK  216  A    between atoms: _531  and  _532
REMARK  217  A    between atoms: _532  and  _533
REMARK  218  A    between atoms: _533  and  _534
REMARK  219  A    between atoms: _543  and  _545
REMARK  220  A    between atoms: _545  and  _546
REMARK  221  A    between atoms: _545  and  _548
REMARK  222  A    between atoms: _548  and  _549
REMARK  223  A    between atoms: _549  and  _550
REMARK  224  A    between atoms: _553  and  _555
REMARK  225  A    between atoms: _555  and  _556
REMARK  226  A    between atoms: _555  and  _558
REMARK  227  A    between atoms: _558  and  _559
REMARK  228  A    between atoms: _559  and  _560
REMARK  229  A    between atoms: _563  and  _564
REMARK  230  A    between atoms: _569  and  _571
REMARK  231  A    between atoms: _571  and  _572
REMARK  232  A    between atoms: _571  and  _574
REMARK  233  A    between atoms: _574  and  _575
REMARK  234  A    between atoms: _575  and  _576
REMARK  235  A    between atoms: _578  and  _580
REMARK  236  A    between atoms: _580  and  _581
REMARK  237  A    between atoms: _583  and  _585
REMARK  238  A    between atoms: _585  and  _586
REMARK  239  A    between atoms: _585  and  _588
REMARK  240  A    between atoms: _591  and  _593
REMARK  241  A    between atoms: _593  and  _594
REMARK  242  A    between atoms: _593  and  _596
REMARK  243  A    between atoms: _596  and  _597
REMARK  244  A    between atoms: _607  and  _609
REMARK  245  A    between atoms: _609  and  _610
REMARK  246  A    between atoms: _609  and  _612
REMARK  247  A    between atoms: _612  and  _613
REMARK  248  A    between atoms: _613  and  _614
REMARK  249  A    between atoms: _618  and  _619
REMARK  250  A    between atoms: _624  and  _626
REMARK  251  A    between atoms: _626  and  _627
REMARK  252  A    between atoms: _626  and  _629
REMARK  253  A    between atoms: _629  and  _630
REMARK  254  A    between atoms: _633  and  _635
REMARK  255  A    between atoms: _635  and  _636
REMARK  256  A    between atoms: _635  and  _638
REMARK  257  A    between atoms: _638  and  _639
REMARK  258  A    between atoms: _644  and  _646
REMARK  259  A    between atoms: _646  and  _647
REMARK  260  A    between atoms: _646  and  _649
REMARK  261  A    between atoms: _649  and  _650
REMARK                            x       y       z     vdW  Elec       q    Type
REMARK                         _______ _______ _______ _____ _____    ______ ____
ROOT
ATOM      1  O   HOH     1      26.710  -4.476  20.045  0.00  0.00    +0.000 OA
ENDROOT
TORSDOF 0
REMARK  Name = ../refined-set-2016/2zym/2zym_pocket.pdb
REMARK  261 active torsions:
REMARK  status: ('A' for Active; 'I' for Inactive)
REMARK    1  A    between atoms: _1  and  _3
REMARK    2  A    between atoms: _3  and  _4
REMARK    3  A    between atoms: _3  and  _6
REMARK    4  A    between atoms: _6  and  _7
REMARK    5  A    between atoms: _7  and  _8
REMARK    6  A    between atoms: _11  and  _13
REMARK    7  A    between atoms: _13  and  _14
REMARK    8  A    between atoms: _13  and  _16
REMARK    9  A    between atoms: _16  and  _17
REMARK   10  A    between atoms: _22  and  _24
REMARK   11  A    between atoms: _24  and  _25
REMARK   12  A    between atoms: _28  and  _30
REMARK   13  A    between atoms: _30  and  _31
REMARK   14  A    between atoms: _30  and  _33
REMARK   15  A    between atoms: _33  and  _34
REMARK   16  A    between atoms: _37  and  _39
REMARK   17  A    between atoms: _39  and  _40
REMARK   18  A    between atoms: _39  and  _42
REMARK   19  A    between atoms: _42  and  _43
REMARK   20  A    between atoms: _43  and  _44
REMARK   21  A    between atoms: _49  and  _51
REMARK   22  A    between atoms: _51  and  _52
REMARK   23  A    between atoms: _51  and  _54
REMARK   24  A    between atoms: _57  and  _59
REMARK   25  A    between atoms: _59  and  _60
REMARK   26  A    between atoms: _63  and  _65
REMARK   27  A    between atoms: _65  and  _66
REMARK   28  A    between atoms: _65  and  _68
REMARK   29  A    between atoms: _68  and  _69
REMARK   30  A    between atoms: _72  and  _74
REMARK   31  A    between atoms: _74  and  _75
REMARK   32  A    between atoms: _74  and  _77
REMARK   33  A    between atoms: _77  and  _78
REMARK   34  A    between atoms: _81  and  _83
REMARK   35  A    between atoms: _83  and  _84
REMARK   36  A    between atoms: _83  and  _86
REMARK   37  A    between atoms: _86  and  _87
REMARK   38  A    between atoms: _87  and  _88
REMARK   39  A    between atoms: _88  and  _89
REMARK   40  A    between atoms: _89  and  _90
REMARK   41  A    between atoms: _94  and  _96
REMARK   42  A    between atoms: _96  and  _97
REMARK   43  A    between atoms: _96  and  _99
REMARK   44  A    between atoms: _99  and  _100
REMARK   45  A    between atoms: _100  and  _101
REMARK   46  A    between atoms: _106  and  _108
REMARK   47  A    between atoms: _108  and  _109
REMARK   48  A    between atoms: _108  and  _111
REMARK   49  A    between atoms: _111  and  _112
REMARK   50  A    between atoms: _112  and  _113
REMARK   51  A    between atoms: _118  and  _120
REMARK   52  A    between atoms: _120  and  _121
REMARK   53  A    between atoms: _120  and  _123
REMARK   54  A    between atoms: _123  and  _124
REMARK   55  A    between atoms: _124  and  _125
REMARK   56  A    between atoms: _128  and  _130
REMARK   57  A    between atoms: _130  and  _131
REMARK   58  A    between atoms: _130  and  _133
REMARK   59  A    between atoms: _133  and  _134
REMARK   60  A    between atoms: _134  and  _135
REMARK   61  A    between atoms: _135  and  _136
REMARK   62  A    between atoms: _136  and  _137
REMARK   63  A    between atoms: _141  and  _143
REMARK   64  A    between atoms: _143  and  _144
REMARK   65  A    between atoms: _143  and  _146
REMARK   66  A    between atoms: _146  and  _147
REMARK   67  A    between atoms: _150  and  _152
REMARK   68  A    between atoms: _152  and  _153
REMARK   69  A    between atoms: _152  and  _155
REMARK   70  A    between atoms: _155  and  _156
REMARK   71  A    between atoms: _167  and  _168
REMARK   72  A    between atoms: _173  and  _175
REMARK   73  A    between atoms: _175  and  _176
REMARK   74  A    between atoms: _175  and  _178
REMARK   75  A    between atoms: _178  and  _179
REMARK   76  A    between atoms: _184  and  _186
REMARK   77  A    between atoms: _186  and  _187
REMARK   78  A    between atoms: _186  and  _189
REMARK   79  A    between atoms: _189  and  _190
REMARK   80  A    between atoms: _193  and  _195
REMARK   81  A    between atoms: _195  and  _196
REMARK   82  A    between atoms: _195  and  _198
REMARK   83  A    between atoms: _198  and  _199
REMARK   84  A    between atoms: _199  and  _200
REMARK   85  A    between atoms: _200  and  _201
REMARK   86  A    between atoms: _210  and  _212
REMARK   87  A    between atoms: _212  and  _213
REMARK   88  A    between atoms: _212  and  _215
REMARK   89  A    between atoms: _215  and  _216
REMARK   90  A    between atoms: _219  and  _221
REMARK   91  A    between atoms: _221  and  _222
REMARK   92  A    between atoms: _221  and  _224
REMARK   93  A    between atoms: _224  and  _225
REMARK   94  A    between atoms: _225  and  _226
REMARK   95  A    between atoms: _229  and  _231
REMARK   96  A    between atoms: _231  and  _232
REMARK   97  A    between atoms: _231  and  _234
REMARK   98  A    between atoms: _234  and  _235
REMARK   99  A    between atoms: _235  and  _236
REMARK  100  A    between atoms: _236  and  _237
REMARK  101  A    between atoms: _237  and  _238
REMARK  102  A    between atoms: _242  and  _244
REMARK  103  A    between atoms: _244  and  _245
REMARK  104  A    between atoms: _248  and  _250
REMARK  105  A    between atoms: _250  and  _251
REMARK  106  A    between atoms: _250  and  _253
REMARK  107  A    between atoms: _253  and  _254
REMARK  108  A    between atoms: _254  and  _255
REMARK  109  A    between atoms: _258  and  _260
REMARK  110  A    between atoms: _260  and  _261
REMARK  111  A    between atoms: _260  and  _263
REMARK  112  A    between atoms: _263  and  _264
REMARK  113  A    between atoms: _266  and  _268
REMARK  114  A    between atoms: _268  and  _269
REMARK  115  A    between atoms: _268  and  _271
REMARK  116  A    between atoms: _274  and  _276
REMARK  117  A    between atoms: _276  and  _277
REMARK  118  A    between atoms: _276  and  _279
REMARK  119  A    between atoms: _279  and  _280
REMARK  120  A    between atoms: _280  and  _281
REMARK  121  A    between atoms: _284  and  _286
REMARK  122  A    between atoms: _286  and  _287
REMARK  123  A    between atoms: _286  and  _289
REMARK  124  A    between atoms: _289  and  _290
REMARK  125  A    between atoms: _295  and  _297
REMARK  126  A    between atoms: _297  and  _298
REMARK  127  A    between atoms: _297  and  _300
REMARK  128  A    between atoms: _300  and  _301
REMARK  129  A    between atoms: _306  and  _308
REMARK  130  A    between atoms: _308  and  _309
REMARK  131  A    between atoms: _308  and  _311
REMARK  132  A    between atoms: _311  and  _312
REMARK  133  A    between atoms: _318  and  _320
REMARK  134  A    between atoms: _320  and  _321
REMARK  135  A    between atoms: _320  and  _323
REMARK  136  A    between atoms: _323  and  _324
REMARK  137  A    between atoms: _329  and  _330
REMARK  138  A    between atoms: _332  and  _334
REMARK  139  A    between atoms: _334  and  _335
REMARK  140  A    between atoms: _334  and  _337
REMARK  141  A    between atoms: _337  and  _338
REMARK  142  A    between atoms: _343  and  _344
REMARK  143  A    between atoms: _346  and  _348
REMARK  144  A    between atoms: _348  and  _349
REMARK  145  A    between atoms: _348  and  _351
REMARK  146  A    between atoms: _351  and  _352
REMARK  147  A    between atoms: _355  and  _357
REMARK  148  A    between atoms: _357  and  _358
REMARK  149  A    between atoms: _357  and  _360
REMARK  150  A    between atoms: _360  and  _361
REMARK  151  A    between atoms: _364  and  _366
REMARK  152  A    between atoms: _366  and  _367
REMARK  153  A    between atoms: _366  and  _369
REMARK  154  A    between atoms: _369  and  _370
REMARK  155  A    between atoms: _370  and  _371
REMARK  156  A    between atoms: _371  and  _372
REMARK  157  A    between atoms: _372  and  _373
REMARK  158  A    between atoms: _377  and  _379
REMARK  159  A    between atoms: _379  and  _380
REMARK  160  A    between atoms: _383  and  _385
REMARK  161  A    between atoms: _385  and  _386
REMARK  162  A    between atoms: _385  and  _388
REMARK  163  A    between atoms: _388  and  _389
REMARK  164  A    between atoms: _392  and  _394
REMARK  165  A    between atoms: _394  and  _395
REMARK  166  A    between atoms: _394  and  _397
REMARK  167  A    between atoms: _397  and  _398
REMARK  168  A    between atoms: _401  and  _403
REMARK  169  A    between atoms: _403  and  _404
REMARK  170  A    between atoms: _403  and  _406
REMARK  171  A    between atoms: _409  and  _411
REMARK  172  A    between atoms: _411  and  _412
REMARK  173  A    between atoms: _411  and  _414
REMARK  174  A    between atoms: _414  and  _415
REMARK  175  A    between atoms: _420  and  _422
REMARK  176  A    between atoms: _422  and  _423
REMARK  177  A    between atoms: _422  and  _425
REMARK  178  A    between atoms: _425  and  _426
REMARK  179  A    between atoms: _431  and  _433
REMARK  180  A    between atoms: _433  and  _434
REMARK  181  A    between atoms: _437  and  _438
REMARK  182  A    between atoms: _443  and  _445
REMARK  183  A    between atoms: _445  and  _446
REMARK  184  A    between atoms: _445  and  _448
REMARK  185  A    between atoms: _448  and  _449
REMARK  186  A    between atoms: _459  and  _461
REMARK  187  A    between atoms: _461  and  _462
REMARK  188  A    between atoms: _465  and  _467
REMARK  189  A    between atoms: _467  and  _468
REMARK  190  A    between atoms: _467  and  _470
REMARK  191  A    between atoms: _470  and  _471
REMARK  192  A    between atoms: _476  and  _477
REMARK  193  A    between atoms: _479  and  _481
REMARK  194  A    between atoms: _481  and  _482
REMARK  195  A    between atoms: _481  and  _484
REMARK  196  A    between atoms: _484  and  _485
REMARK  197  A    between atoms: _491  and  _493
REMARK  198  A    between atoms: _493  and  _494
REMARK  199  A    between atoms: _493  and  _496
REMARK  200  A    between atoms: _496  and  _497
REMARK  201  A    between atoms: _500  and  _502
REMARK  202  A    between atoms: _502  and  _503
REMARK  203  A    between atoms: _505  and  _507
REMARK  204  A    between atoms: _507  and  _508
REMARK  205  A    between atoms: _507  and  _510
REMARK  206  A    between atoms: _513  and  _515
REMARK  207  A    between atoms: _515  and  _516
REMARK  208  A    between atoms: _515  and  _518
REMARK  209  A    between atoms: _518  and  _519
REMARK  210  A    between atoms: _519  and  _520
REMARK  211  A    between atoms: _520  and  _521
REMARK  212  A    between atoms: _521  and  _522
REMARK  213  A    between atoms: _526  and  _528
REMARK  214  A    between atoms: _528  and  _529
REMARK  215  A    between atoms: _528  and  _531
REMARK  216  A    between atoms: _531  and  _532
REMARK  217  A    between atoms: _532  and  _533
REMARK  218  A    between atoms: _533  and  _534
REMARK  219  A    between atoms: _543  and  _545
REMARK  220  A    between atoms: _545  and  _546
REMARK  221  A    between atoms: _545  and  _548
REMARK  222  A    between atoms: _548  and  _549
REMARK  223  A    between atoms: _549  and  _550
REMARK  224  A    between atoms: _553  and  _555
REMARK  225  A    between atoms: _555  and  _556
REMARK  226  A    between atoms: _555  and  _558
REMARK  227  A    between atoms: _558  and  _559
REMARK  228  A    between atoms: _559  and  _560
REMARK  229  A    between atoms: _563  and  _564
REMARK  230  A    between atoms: _569  and  _571
REMARK  231  A    between atoms: _571  and  _572
REMARK  232  A    between atoms: _571  and  _574
REMARK  233  A    between atoms: _574  and  _575
REMARK  234  A    between atoms: _575  and  _576
REMARK  235  A    between atoms: _578  and  _580
REMARK  236  A    between atoms: _580  and  _581
REMARK  237  A    between atoms: _583  and  _585
REMARK  238  A    between atoms: _585  and  _586
REMARK  239  A    between atoms: _585  and  _588
REMARK  240  A    between atoms: _591  and  _593
REMARK  241  A    between atoms: _593  and  _594
REMARK  242  A    between atoms: _593  and  _596
REMARK  243  A    between atoms: _596  and  _597
REMARK  244  A    between atoms: _607  and  _609
REMARK  245  A    between atoms: _609  and  _610
REMARK  246  A    between atoms: _609  and  _612
REMARK  247  A    between atoms: _612  and  _613
REMARK  248  A    between atoms: _613  and  _614
REMARK  249  A    between atoms: _618  and  _619
REMARK  250  A    between atoms: _624  and  _626
REMARK  251  A    between atoms: _626  and  _627
REMARK  252  A    between atoms: _626  and  _629
REMARK  253  A    between atoms: _629  and  _630
REMARK  254  A    between atoms: _633  and  _635
REMARK  255  A    between atoms: _635  and  _636
REMARK  256  A    between atoms: _635  and  _638
REMARK  257  A    between atoms: _638  and  _639
REMARK  258  A    between atoms: _644  and  _646
REMARK  259  A    between atoms: _646  and  _647
REMARK  260  A    between atoms: _646  and  _649
REMARK  261  A    between atoms: _649  and  _650
REMARK                            x       y       z     vdW  Elec       q    Type
REMARK                         _______ _______ _______ _____ _____    ______ ____
ROOT
ATOM      1  O   HOH     1       9.678   9.044  15.722  0.00  0.00    +0.000 OA
ENDROOT
TORSDOF 0
REMARK  Name = ../refined-set-2016/2zym/2zym_pocket.pdb
REMARK  261 active torsions:
REMARK  status: ('A' for Active; 'I' for Inactive)
REMARK    1  A    between atoms: _1  and  _3
REMARK    2  A    between atoms: _3  and  _4
REMARK    3  A    between atoms: _3  and  _6
REMARK    4  A    between atoms: _6  and  _7
REMARK    5  A    between atoms: _7  and  _8
REMARK    6  A    between atoms: _11  and  _13
REMARK    7  A    between atoms: _13  and  _14
REMARK    8  A    between atoms: _13  and  _16
REMARK    9  A    between atoms: _16  and  _17
REMARK   10  A    between atoms: _22  and  _24
REMARK   11  A    between atoms: _24  and  _25
REMARK   12  A    between atoms: _28  and  _30
REMARK   13  A    between atoms: _30  and  _31
REMARK   14  A    between atoms: _30  and  _33
REMARK   15  A    between atoms: _33  and  _34
REMARK   16  A    between atoms: _37  and  _39
REMARK   17  A    between atoms: _39  and  _40
REMARK   18  A    between atoms: _39  and  _42
REMARK   19  A    between atoms: _42  and  _43
REMARK   20  A    between atoms: _43  and  _44
REMARK   21  A    between atoms: _49  and  _51
REMARK   22  A    between atoms: _51  and  _52
REMARK   23  A    between atoms: _51  and  _54
REMARK   24  A    between atoms: _57  and  _59
REMARK   25  A    between atoms: _59  and  _60
REMARK   26  A    between atoms: _63  and  _65
REMARK   27  A    between atoms: _65  and  _66
REMARK   28  A    between atoms: _65  and  _68
REMARK   29  A    between atoms: _68  and  _69
REMARK   30  A    between atoms: _72  and  _74
REMARK   31  A    between atoms: _74  and  _75
REMARK   32  A    between atoms: _74  and  _77
REMARK   33  A    between atoms: _77  and  _78
REMARK   34  A    between atoms: _81  and  _83
REMARK   35  A    between atoms: _83  and  _84
REMARK   36  A    between atoms: _83  and  _86
REMARK   37  A    between atoms: _86  and  _87
REMARK   38  A    between atoms: _87  and  _88
REMARK   39  A    between atoms: _88  and  _89
REMARK   40  A    between atoms: _89  and  _90
REMARK   41  A    between atoms: _94  and  _96
REMARK   42  A    between atoms: _96  and  _97
REMARK   43  A    between atoms: _96  and  _99
REMARK   44  A    between atoms: _99  and  _100
REMARK   45  A    between atoms: _100  and  _101
REMARK   46  A    between atoms: _106  and  _108
REMARK   47  A    between atoms: _108  and  _109
REMARK   48  A    between atoms: _108  and  _111
REMARK   49  A    between atoms: _111  and  _112
REMARK   50  A    between atoms: _112  and  _113
REMARK   51  A    between atoms: _118  and  _120
REMARK   52  A    between atoms: _120  and  _121
REMARK   53  A    between atoms: _120  and  _123
REMARK   54  A    between atoms: _123  and  _124
REMARK   55  A    between atoms: _124  and  _125
REMARK   56  A    between atoms: _128  and  _130
REMARK   57  A    between atoms: _130  and  _131
REMARK   58  A    between atoms: _130  and  _133
REMARK   59  A    between atoms: _133  and  _134
REMARK   60  A    between atoms: _134  and  _135
REMARK   61  A    between atoms: _135  and  _136
REMARK   62  A    between atoms: _136  and  _137
REMARK   63  A    between atoms: _141  and  _143
REMARK   64  A    between atoms: _143  and  _144
REMARK   65  A    between atoms: _143  and  _146
REMARK   66  A    between atoms: _146  and  _147
REMARK   67  A    between atoms: _150  and  _152
REMARK   68  A    between atoms: _152  and  _153
REMARK   69  A    between atoms: _152  and  _155
REMARK   70  A    between atoms: _155  and  _156
REMARK   71  A    between atoms: _167  and  _168
REMARK   72  A    between atoms: _173  and  _175
REMARK   73  A    between atoms: _175  and  _176
REMARK   74  A    between atoms: _175  and  _178
REMARK   75  A    between atoms: _178  and  _179
REMARK   76  A    between atoms: _184  and  _186
REMARK   77  A    between atoms: _186  and  _187
REMARK   78  A    between atoms: _186  and  _189
REMARK   79  A    between atoms: _189  and  _190
REMARK   80  A    between atoms: _193  and  _195
REMARK   81  A    between atoms: _195  and  _196
REMARK   82  A    between atoms: _195  and  _198
REMARK   83  A    between atoms: _198  and  _199
REMARK   84  A    between atoms: _199  and  _200
REMARK   85  A    between atoms: _200  and  _201
REMARK   86  A    between atoms: _210  and  _212
REMARK   87  A    between atoms: _212  and  _213
REMARK   88  A    between atoms: _212  and  _215
REMARK   89  A    between atoms: _215  and  _216
REMARK   90  A    between atoms: _219  and  _221
REMARK   91  A    between atoms: _221  and  _222
REMARK   92  A    between atoms: _221  and  _224
REMARK   93  A    between atoms: _224  and  _225
REMARK   94  A    between atoms: _225  and  _226
REMARK   95  A    between atoms: _229  and  _231
REMARK   96  A    between atoms: _231  and  _232
REMARK   97  A    between atoms: _231  and  _234
REMARK   98  A    between atoms: _234  and  _235
REMARK   99  A    between atoms: _235  and  _236
REMARK  100  A    between atoms: _236  and  _237
REMARK  101  A    between atoms: _237  and  _238
REMARK  102  A    between atoms: _242  and  _244
REMARK  103  A    between atoms: _244  and  _245
REMARK  104  A    between atoms: _248  and  _250
REMARK  105  A    between atoms: _250  and  _251
REMARK  106  A    between atoms: _250  and  _253
REMARK  107  A    between atoms: _253  and  _254
REMARK  108  A    between atoms: _254  and  _255
REMARK  109  A    between atoms: _258  and  _260
REMARK  110  A    between atoms: _260  and  _261
REMARK  111  A    between atoms: _260  and  _263
REMARK  112  A    between atoms: _263  and  _264
REMARK  113  A    between atoms: _266  and  _268
REMARK  114  A    between atoms: _268  and  _269
REMARK  115  A    between atoms: _268  and  _271
REMARK  116  A    between atoms: _274  and  _276
REMARK  117  A    between atoms: _276  and  _277
REMARK  118  A    between atoms: _276  and  _279
REMARK  119  A    between atoms: _279  and  _280
REMARK  120  A    between atoms: _280  and  _281
REMARK  121  A    between atoms: _284  and  _286
REMARK  122  A    between atoms: _286  and  _287
REMARK  123  A    between atoms: _286  and  _289
REMARK  124  A    between atoms: _289  and  _290
REMARK  125  A    between atoms: _295  and  _297
REMARK  126  A    between atoms: _297  and  _298
REMARK  127  A    between atoms: _297  and  _300
REMARK  128  A    between atoms: _300  and  _301
REMARK  129  A    between atoms: _306  and  _308
REMARK  130  A    between atoms: _308  and  _309
REMARK  131  A    between atoms: _308  and  _311
REMARK  132  A    between atoms: _311  and  _312
REMARK  133  A    between atoms: _318  and  _320
REMARK  134  A    between atoms: _320  and  _321
REMARK  135  A    between atoms: _320  and  _323
REMARK  136  A    between atoms: _323  and  _324
REMARK  137  A    between atoms: _329  and  _330
REMARK  138  A    between atoms: _332  and  _334
REMARK  139  A    between atoms: _334  and  _335
REMARK  140  A    between atoms: _334  and  _337
REMARK  141  A    between atoms: _337  and  _338
REMARK  142  A    between atoms: _343  and  _344
REMARK  143  A    between atoms: _346  and  _348
REMARK  144  A    between atoms: _348  and  _349
REMARK  145  A    between atoms: _348  and  _351
REMARK  146  A    between atoms: _351  and  _352
REMARK  147  A    between atoms: _355  and  _357
REMARK  148  A    between atoms: _357  and  _358
REMARK  149  A    between atoms: _357  and  _360
REMARK  150  A    between atoms: _360  and  _361
REMARK  151  A    between atoms: _364  and  _366
REMARK  152  A    between atoms: _366  and  _367
REMARK  153  A    between atoms: _366  and  _369
REMARK  154  A    between atoms: _369  and  _370
REMARK  155  A    between atoms: _370  and  _371
REMARK  156  A    between atoms: _371  and  _372
REMARK  157  A    between atoms: _372  and  _373
REMARK  158  A    between atoms: _377  and  _379
REMARK  159  A    between atoms: _379  and  _380
REMARK  160  A    between atoms: _383  and  _385
REMARK  161  A    between atoms: _385  and  _386
REMARK  162  A    between atoms: _385  and  _388
REMARK  163  A    between atoms: _388  and  _389
REMARK  164  A    between atoms: _392  and  _394
REMARK  165  A    between atoms: _394  and  _395
REMARK  166  A    between atoms: _394  and  _397
REMARK  167  A    between atoms: _397  and  _398
REMARK  168  A    between atoms: _401  and  _403
REMARK  169  A    between atoms: _403  and  _404
REMARK  170  A    between atoms: _403  and  _406
REMARK  171  A    between atoms: _409  and  _411
REMARK  172  A    between atoms: _411  and  _412
REMARK  173  A    between atoms: _411  and  _414
REMARK  174  A    between atoms: _414  and  _415
REMARK  175  A    between atoms: _420  and  _422
REMARK  176  A    between atoms: _422  and  _423
REMARK  177  A    between atoms: _422  and  _425
REMARK  178  A    between atoms: _425  and  _426
REMARK  179  A    between atoms: _431  and  _433
REMARK  180  A    between atoms: _433  and  _434
REMARK  181  A    between atoms: _437  and  _438
REMARK  182  A    between atoms: _443  and  _445
REMARK  183  A    between atoms: _445  and  _446
REMARK  184  A    between atoms: _445  and  _448
REMARK  185  A    between atoms: _448  and  _449
REMARK  186  A    between atoms: _459  and  _461
REMARK  187  A    between atoms: _461  and  _462
REMARK  188  A    between atoms: _465  and  _467
REMARK  189  A    between atoms: _467  and  _468
REMARK  190  A    between atoms: _467  and  _470
REMARK  191  A    between atoms: _470  and  _471
REMARK  192  A    between atoms: _476  and  _477
REMARK  193  A    between atoms: _479  and  _481
REMARK  194  A    between atoms: _481  and  _482
REMARK  195  A    between atoms: _481  and  _484
REMARK  196  A    between atoms: _484  and  _485
REMARK  197  A    between atoms: _491  and  _493
REMARK  198  A    between atoms: _493  and  _494
REMARK  199  A    between atoms: _493  and  _496
REMARK  200  A    between atoms: _496  and  _497
REMARK  201  A    between atoms: _500  and  _502
REMARK  202  A    between atoms: _502  and  _503
REMARK  203  A    between atoms: _505  and  _507
REMARK  204  A    between atoms: _507  and  _508
REMARK  205  A    between atoms: _507  and  _510
REMARK  206  A    between atoms: _513  and  _515
REMARK  207  A    between atoms: _515  and  _516
REMARK  208  A    between atoms: _515  and  _518
REMARK  209  A    between atoms: _518  and  _519
REMARK  210  A    between atoms: _519  and  _520
REMARK  211  A    between atoms: _520  and  _521
REMARK  212  A    between atoms: _521  and  _522
REMARK  213  A    between atoms: _526  and  _528
REMARK  214  A    between atoms: _528  and  _529
REMARK  215  A    between atoms: _528  and  _531
REMARK  216  A    between atoms: _531  and  _532
REMARK  217  A    between atoms: _532  and  _533
REMARK  218  A    between atoms: _533  and  _534
REMARK  219  A    between atoms: _543  and  _545
REMARK  220  A    between atoms: _545  and  _546
REMARK  221  A    between atoms: _545  and  _548
REMARK  222  A    between atoms: _548  and  _549
REMARK  223  A    between atoms: _549  and  _550
REMARK  224  A    between atoms: _553  and  _555
REMARK  225  A    between atoms: _555  and  _556
REMARK  226  A    between atoms: _555  and  _558
REMARK  227  A    between atoms: _558  and  _559
REMARK  228  A    between atoms: _559  and  _560
REMARK  229  A    between atoms: _563  and  _564
REMARK  230  A    between atoms: _569  and  _571
REMARK  231  A    between atoms: _571  and  _572
REMARK  232  A    between atoms: _571  and  _574
REMARK  233  A    between atoms: _574  and  _575
REMARK  234  A    between atoms: _575  and  _576
REMARK  235  A    between atoms: _578  and  _580
REMARK  236  A    between atoms: _580  and  _581
REMARK  237  A    between atoms: _583  and  _585
REMARK  238  A    between atoms: _585  and  _586
REMARK  239  A    between atoms: _585  and  _588
REMARK  240  A    between atoms: _591  and  _593
REMARK  241  A    between atoms: _593  and  _594
REMARK  242  A    between atoms: _593  and  _596
REMARK  243  A    between atoms: _596  and  _597
REMARK  244  A    between atoms: _607  and  _609
REMARK  245  A    between atoms: _609  and  _610
REMARK  246  A    between atoms: _609  and  _612
REMARK  247  A    between atoms: _612  and  _613
REMARK  248  A    between atoms: _613  and  _614
REMARK  249  A    between atoms: _618  and  _619
REMARK  250  A    between atoms: _624  and  _626
REMARK  251  A    between atoms: _626  and  _627
REMARK  252  A    between atoms: _626  and  _629
REMARK  253  A    between atoms: _629  and  _630
REMARK  254  A    between atoms: _633  and  _635
REMARK  255  A    between atoms: _635  and  _636
REMARK  256  A    between atoms: _635  and  _638
REMARK  257  A    between atoms: _638  and  _639
REMARK  258  A    between atoms: _644  and  _646
REMARK  259  A    between atoms: _646  and  _647
REMARK  260  A    between atoms: _646  and  _649
REMARK  261  A    between atoms: _649  and  _650
REMARK                            x       y       z     vdW  Elec       q    Type
REMARK                         _______ _______ _______ _____ _____    ______ ____
ROOT
ATOM      1  O   HOH     1      18.309  11.929  19.556  0.00  0.00    +0.000 OA
ENDROOT
TORSDOF 0
REMARK  Name = ../refined-set-2016/2zym/2zym_pocket.pdb
REMARK  261 active torsions:
REMARK  status: ('A' for Active; 'I' for Inactive)
REMARK    1  A    between atoms: _1  and  _3
REMARK    2  A    between atoms: _3  and  _4
REMARK    3  A    between atoms: _3  and  _6
REMARK    4  A    between atoms: _6  and  _7
REMARK    5  A    between atoms: _7  and  _8
REMARK    6  A    between atoms: _11  and  _13
REMARK    7  A    between atoms: _13  and  _14
REMARK    8  A    between atoms: _13  and  _16
REMARK    9  A    between atoms: _16  and  _17
REMARK   10  A    between atoms: _22  and  _24
REMARK   11  A    between atoms: _24  and  _25
REMARK   12  A    between atoms: _28  and  _30
REMARK   13  A    between atoms: _30  and  _31
REMARK   14  A    between atoms: _30  and  _33
REMARK   15  A    between atoms: _33  and  _34
REMARK   16  A    between atoms: _37  and  _39
REMARK   17  A    between atoms: _39  and  _40
REMARK   18  A    between atoms: _39  and  _42
REMARK   19  A    between atoms: _42  and  _43
REMARK   20  A    between atoms: _43  and  _44
REMARK   21  A    between atoms: _49  and  _51
REMARK   22  A    between atoms: _51  and  _52
REMARK   23  A    between atoms: _51  and  _54
REMARK   24  A    between atoms: _57  and  _59
REMARK   25  A    between atoms: _59  and  _60
REMARK   26  A    between atoms: _63  and  _65
REMARK   27  A    between atoms: _65  and  _66
REMARK   28  A    between atoms: _65  and  _68
REMARK   29  A    between atoms: _68  and  _69
REMARK   30  A    between atoms: _72  and  _74
REMARK   31  A    between atoms: _74  and  _75
REMARK   32  A    between atoms: _74  and  _77
REMARK   33  A    between atoms: _77  and  _78
REMARK   34  A    between atoms: _81  and  _83
REMARK   35  A    between atoms: _83  and  _84
REMARK   36  A    between atoms: _83  and  _86
REMARK   37  A    between atoms: _86  and  _87
REMARK   38  A    between atoms: _87  and  _88
REMARK   39  A    between atoms: _88  and  _89
REMARK   40  A    between atoms: _89  and  _90
REMARK   41  A    between atoms: _94  and  _96
REMARK   42  A    between atoms: _96  and  _97
REMARK   43  A    between atoms: _96  and  _99
REMARK   44  A    between atoms: _99  and  _100
REMARK   45  A    between atoms: _100  and  _101
REMARK   46  A    between atoms: _106  and  _108
REMARK   47  A    between atoms: _108  and  _109
REMARK   48  A    between atoms: _108  and  _111
REMARK   49  A    between atoms: _111  and  _112
REMARK   50  A    between atoms: _112  and  _113
REMARK   51  A    between atoms: _118  and  _120
REMARK   52  A    between atoms: _120  and  _121
REMARK   53  A    between atoms: _120  and  _123
REMARK   54  A    between atoms: _123  and  _124
REMARK   55  A    between atoms: _124  and  _125
REMARK   56  A    between atoms: _128  and  _130
REMARK   57  A    between atoms: _130  and  _131
REMARK   58  A    between atoms: _130  and  _133
REMARK   59  A    between atoms: _133  and  _134
REMARK   60  A    between atoms: _134  and  _135
REMARK   61  A    between atoms: _135  and  _136
REMARK   62  A    between atoms: _136  and  _137
REMARK   63  A    between atoms: _141  and  _143
REMARK   64  A    between atoms: _143  and  _144
REMARK   65  A    between atoms: _143  and  _146
REMARK   66  A    between atoms: _146  and  _147
REMARK   67  A    between atoms: _150  and  _152
REMARK   68  A    between atoms: _152  and  _153
REMARK   69  A    between atoms: _152  and  _155
REMARK   70  A    between atoms: _155  and  _156
REMARK   71  A    between atoms: _167  and  _168
REMARK   72  A    between atoms: _173  and  _175
REMARK   73  A    between atoms: _175  and  _176
REMARK   74  A    between atoms: _175  and  _178
REMARK   75  A    between atoms: _178  and  _179
REMARK   76  A    between atoms: _184  and  _186
REMARK   77  A    between atoms: _186  and  _187
REMARK   78  A    between atoms: _186  and  _189
REMARK   79  A    between atoms: _189  and  _190
REMARK   80  A    between atoms: _193  and  _195
REMARK   81  A    between atoms: _195  and  _196
REMARK   82  A    between atoms: _195  and  _198
REMARK   83  A    between atoms: _198  and  _199
REMARK   84  A    between atoms: _199  and  _200
REMARK   85  A    between atoms: _200  and  _201
REMARK   86  A    between atoms: _210  and  _212
REMARK   87  A    between atoms: _212  and  _213
REMARK   88  A    between atoms: _212  and  _215
REMARK   89  A    between atoms: _215  and  _216
REMARK   90  A    between atoms: _219  and  _221
REMARK   91  A    between atoms: _221  and  _222
REMARK   92  A    between atoms: _221  and  _224
REMARK   93  A    between atoms: _224  and  _225
REMARK   94  A    between atoms: _225  and  _226
REMARK   95  A    between atoms: _229  and  _231
REMARK   96  A    between atoms: _231  and  _232
REMARK   97  A    between atoms: _231  and  _234
REMARK   98  A    between atoms: _234  and  _235
REMARK   99  A    between atoms: _235  and  _236
REMARK  100  A    between atoms: _236  and  _237
REMARK  101  A    between atoms: _237  and  _238
REMARK  102  A    between atoms: _242  and  _244
REMARK  103  A    between atoms: _244  and  _245
REMARK  104  A    between atoms: _248  and  _250
REMARK  105  A    between atoms: _250  and  _251
REMARK  106  A    between atoms: _250  and  _253
REMARK  107  A    between atoms: _253  and  _254
REMARK  108  A    between atoms: _254  and  _255
REMARK  109  A    between atoms: _258  and  _260
REMARK  110  A    between atoms: _260  and  _261
REMARK  111  A    between atoms: _260  and  _263
REMARK  112  A    between atoms: _263  and  _264
REMARK  113  A    between atoms: _266  and  _268
REMARK  114  A    between atoms: _268  and  _269
REMARK  115  A    between atoms: _268  and  _271
REMARK  116  A    between atoms: _274  and  _276
REMARK  117  A    between atoms: _276  and  _277
REMARK  118  A    between atoms: _276  and  _279
REMARK  119  A    between atoms: _279  and  _280
REMARK  120  A    between atoms: _280  and  _281
REMARK  121  A    between atoms: _284  and  _286
REMARK  122  A    between atoms: _286  and  _287
REMARK  123  A    between atoms: _286  and  _289
REMARK  124  A    between atoms: _289  and  _290
REMARK  125  A    between atoms: _295  and  _297
REMARK  126  A    between atoms: _297  and  _298
REMARK  127  A    between atoms: _297  and  _300
REMARK  128  A    between atoms: _300  and  _301
REMARK  129  A    between atoms: _306  and  _308
REMARK  130  A    between atoms: _308  and  _309
REMARK  131  A    between atoms: _308  and  _311
REMARK  132  A    between atoms: _311  and  _312
REMARK  133  A    between atoms: _318  and  _320
REMARK  134  A    between atoms: _320  and  _321
REMARK  135  A    between atoms: _320  and  _323
REMARK  136  A    between atoms: _323  and  _324
REMARK  137  A    between atoms: _329  and  _330
REMARK  138  A    between atoms: _332  and  _334
REMARK  139  A    between atoms: _334  and  _335
REMARK  140  A    between atoms: _334  and  _337
REMARK  141  A    between atoms: _337  and  _338
REMARK  142  A    between atoms: _343  and  _344
REMARK  143  A    between atoms: _346  and  _348
REMARK  144  A    between atoms: _348  and  _349
REMARK  145  A    between atoms: _348  and  _351
REMARK  146  A    between atoms: _351  and  _352
REMARK  147  A    between atoms: _355  and  _357
REMARK  148  A    between atoms: _357  and  _358
REMARK  149  A    between atoms: _357  and  _360
REMARK  150  A    between atoms: _360  and  _361
REMARK  151  A    between atoms: _364  and  _366
REMARK  152  A    between atoms: _366  and  _367
REMARK  153  A    between atoms: _366  and  _369
REMARK  154  A    between atoms: _369  and  _370
REMARK  155  A    between atoms: _370  and  _371
REMARK  156  A    between atoms: _371  and  _372
REMARK  157  A    between atoms: _372  and  _373
REMARK  158  A    between atoms: _377  and  _379
REMARK  159  A    between atoms: _379  and  _380
REMARK  160  A    between atoms: _383  and  _385
REMARK  161  A    between atoms: _385  and  _386
REMARK  162  A    between atoms: _385  and  _388
REMARK  163  A    between atoms: _388  and  _389
REMARK  164  A    between atoms: _392  and  _394
REMARK  165  A    between atoms: _394  and  _395
REMARK  166  A    between atoms: _394  and  _397
REMARK  167  A    between atoms: _397  and  _398
REMARK  168  A    between atoms: _401  and  _403
REMARK  169  A    between atoms: _403  and  _404
REMARK  170  A    between atoms: _403  and  _406
REMARK  171  A    between atoms: _409  and  _411
REMARK  172  A    between atoms: _411  and  _412
REMARK  173  A    between atoms: _411  and  _414
REMARK  174  A    between atoms: _414  and  _415
REMARK  175  A    between atoms: _420  and  _422
REMARK  176  A    between atoms: _422  and  _423
REMARK  177  A    between atoms: _422  and  _425
REMARK  178  A    between atoms: _425  and  _426
REMARK  179  A    between atoms: _431  and  _433
REMARK  180  A    between atoms: _433  and  _434
REMARK  181  A    between atoms: _437  and  _438
REMARK  182  A    between atoms: _443  and  _445
REMARK  183  A    between atoms: _445  and  _446
REMARK  184  A    between atoms: _445  and  _448
REMARK  185  A    between atoms: _448  and  _449
REMARK  186  A    between atoms: _459  and  _461
REMARK  187  A    between atoms: _461  and  _462
REMARK  188  A    between atoms: _465  and  _467
REMARK  189  A    between atoms: _467  and  _468
REMARK  190  A    between atoms: _467  and  _470
REMARK  191  A    between atoms: _470  and  _471
REMARK  192  A    between atoms: _476  and  _477
REMARK  193  A    between atoms: _479  and  _481
REMARK  194  A    between atoms: _481  and  _482
REMARK  195  A    between atoms: _481  and  _484
REMARK  196  A    between atoms: _484  and  _485
REMARK  197  A    between atoms: _491  and  _493
REMARK  198  A    between atoms: _493  and  _494
REMARK  199  A    between atoms: _493  and  _496
REMARK  200  A    between atoms: _496  and  _497
REMARK  201  A    between atoms: _500  and  _502
REMARK  202  A    between atoms: _502  and  _503
REMARK  203  A    between atoms: _505  and  _507
REMARK  204  A    between atoms: _507  and  _508
REMARK  205  A    between atoms: _507  and  _510
REMARK  206  A    between atoms: _513  and  _515
REMARK  207  A    between atoms: _515  and  _516
REMARK  208  A    between atoms: _515  and  _518
REMARK  209  A    between atoms: _518  and  _519
REMARK  210  A    between atoms: _519  and  _520
REMARK  211  A    between atoms: _520  and  _521
REMARK  212  A    between atoms: _521  and  _522
REMARK  213  A    between atoms: _526  and  _528
REMARK  214  A    between atoms: _528  and  _529
REMARK  215  A    between atoms: _528  and  _531
REMARK  216  A    between atoms: _531  and  _532
REMARK  217  A    between atoms: _532  and  _533
REMARK  218  A    between atoms: _533  and  _534
REMARK  219  A    between atoms: _543  and  _545
REMARK  220  A    between atoms: _545  and  _546
REMARK  221  A    between atoms: _545  and  _548
REMARK  222  A    between atoms: _548  and  _549
REMARK  223  A    between atoms: _549  and  _550
REMARK  224  A    between atoms: _553  and  _555
REMARK  225  A    between atoms: _555  and  _556
REMARK  226  A    between atoms: _555  and  _558
REMARK  227  A    between atoms: _558  and  _559
REMARK  228  A    between atoms: _559  and  _560
REMARK  229  A    between atoms: _563  and  _564
REMARK  230  A    between atoms: _569  and  _571
REMARK  231  A    between atoms: _571  and  _572
REMARK  232  A    between atoms: _571  and  _574
REMARK  233  A    between atoms: _574  and  _575
REMARK  234  A    between atoms: _575  and  _576
REMARK  235  A    between atoms: _578  and  _580
REMARK  236  A    between atoms: _580  and  _581
REMARK  237  A    between atoms: _583  and  _585
REMARK  238  A    between atoms: _585  and  _586
REMARK  239  A    between atoms: _585  and  _588
REMARK  240  A    between atoms: _591  and  _593
REMARK  241  A    between atoms: _593  and  _594
REMARK  242  A    between atoms: _593  and  _596
REMARK  243  A    between atoms: _596  and  _597
REMARK  244  A    between atoms: _607  and  _609
REMARK  245  A    between atoms: _609  and  _610
REMARK  246  A    between atoms: _609  and  _612
REMARK  247  A    between atoms: _612  and  _613
REMARK  248  A    between atoms: _613  and  _614
REMARK  249  A    between atoms: _618  and  _619
REMARK  250  A    between atoms: _624  and  _626
REMARK  251  A    between atoms: _626  and  _627
REMARK  252  A    between atoms: _626  and  _629
REMARK  253  A    between atoms: _629  and  _630
REMARK  254  A    between atoms: _633  and  _635
REMARK  255  A    between atoms: _635  and  _636
REMARK  256  A    between atoms: _635  and  _638
REMARK  257  A    between atoms: _638  and  _639
REMARK  258  A    between atoms: _644  and  _646
REMARK  259  A    between atoms: _646  and  _647
REMARK  260  A    between atoms: _646  and  _649
REMARK  261  A    between atoms: _649  and  _650
REMARK                            x       y       z     vdW  Elec       q    Type
REMARK                         _______ _______ _______ _____ _____    ______ ____
ROOT
ATOM      1  O   HOH     1      23.603  -4.951  10.469  0.00  0.00    +0.000 OA
ENDROOT
TORSDOF 0
REMARK  Name = ../refined-set-2016/2zym/2zym_pocket.pdb
REMARK  261 active torsions:
REMARK  status: ('A' for Active; 'I' for Inactive)
REMARK    1  A    between atoms: _1  and  _3
REMARK    2  A    between atoms: _3  and  _4
REMARK    3  A    between atoms: _3  and  _6
REMARK    4  A    between atoms: _6  and  _7
REMARK    5  A    between atoms: _7  and  _8
REMARK    6  A    between atoms: _11  and  _13
REMARK    7  A    between atoms: _13  and  _14
REMARK    8  A    between atoms: _13  and  _16
REMARK    9  A    between atoms: _16  and  _17
REMARK   10  A    between atoms: _22  and  _24
REMARK   11  A    between atoms: _24  and  _25
REMARK   12  A    between atoms: _28  and  _30
REMARK   13  A    between atoms: _30  and  _31
REMARK   14  A    between atoms: _30  and  _33
REMARK   15  A    between atoms: _33  and  _34
REMARK   16  A    between atoms: _37  and  _39
REMARK   17  A    between atoms: _39  and  _40
REMARK   18  A    between atoms: _39  and  _42
REMARK   19  A    between atoms: _42  and  _43
REMARK   20  A    between atoms: _43  and  _44
REMARK   21  A    between atoms: _49  and  _51
REMARK   22  A    between atoms: _51  and  _52
REMARK   23  A    between atoms: _51  and  _54
REMARK   24  A    between atoms: _57  and  _59
REMARK   25  A    between atoms: _59  and  _60
REMARK   26  A    between atoms: _63  and  _65
REMARK   27  A    between atoms: _65  and  _66
REMARK   28  A    between atoms: _65  and  _68
REMARK   29  A    between atoms: _68  and  _69
REMARK   30  A    between atoms: _72  and  _74
REMARK   31  A    between atoms: _74  and  _75
REMARK   32  A    between atoms: _74  and  _77
REMARK   33  A    between atoms: _77  and  _78
REMARK   34  A    between atoms: _81  and  _83
REMARK   35  A    between atoms: _83  and  _84
REMARK   36  A    between atoms: _83  and  _86
REMARK   37  A    between atoms: _86  and  _87
REMARK   38  A    between atoms: _87  and  _88
REMARK   39  A    between atoms: _88  and  _89
REMARK   40  A    between atoms: _89  and  _90
REMARK   41  A    between atoms: _94  and  _96
REMARK   42  A    between atoms: _96  and  _97
REMARK   43  A    between atoms: _96  and  _99
REMARK   44  A    between atoms: _99  and  _100
REMARK   45  A    between atoms: _100  and  _101
REMARK   46  A    between atoms: _106  and  _108
REMARK   47  A    between atoms: _108  and  _109
REMARK   48  A    between atoms: _108  and  _111
REMARK   49  A    between atoms: _111  and  _112
REMARK   50  A    between atoms: _112  and  _113
REMARK   51  A    between atoms: _118  and  _120
REMARK   52  A    between atoms: _120  and  _121
REMARK   53  A    between atoms: _120  and  _123
REMARK   54  A    between atoms: _123  and  _124
REMARK   55  A    between atoms: _124  and  _125
REMARK   56  A    between atoms: _128  and  _130
REMARK   57  A    between atoms: _130  and  _131
REMARK   58  A    between atoms: _130  and  _133
REMARK   59  A    between atoms: _133  and  _134
REMARK   60  A    between atoms: _134  and  _135
REMARK   61  A    between atoms: _135  and  _136
REMARK   62  A    between atoms: _136  and  _137
REMARK   63  A    between atoms: _141  and  _143
REMARK   64  A    between atoms: _143  and  _144
REMARK   65  A    between atoms: _143  and  _146
REMARK   66  A    between atoms: _146  and  _147
REMARK   67  A    between atoms: _150  and  _152
REMARK   68  A    between atoms: _152  and  _153
REMARK   69  A    between atoms: _152  and  _155
REMARK   70  A    between atoms: _155  and  _156
REMARK   71  A    between atoms: _167  and  _168
REMARK   72  A    between atoms: _173  and  _175
REMARK   73  A    between atoms: _175  and  _176
REMARK   74  A    between atoms: _175  and  _178
REMARK   75  A    between atoms: _178  and  _179
REMARK   76  A    between atoms: _184  and  _186
REMARK   77  A    between atoms: _186  and  _187
REMARK   78  A    between atoms: _186  and  _189
REMARK   79  A    between atoms: _189  and  _190
REMARK   80  A    between atoms: _193  and  _195
REMARK   81  A    between atoms: _195  and  _196
REMARK   82  A    between atoms: _195  and  _198
REMARK   83  A    between atoms: _198  and  _199
REMARK   84  A    between atoms: _199  and  _200
REMARK   85  A    between atoms: _200  and  _201
REMARK   86  A    between atoms: _210  and  _212
REMARK   87  A    between atoms: _212  and  _213
REMARK   88  A    between atoms: _212  and  _215
REMARK   89  A    between atoms: _215  and  _216
REMARK   90  A    between atoms: _219  and  _221
REMARK   91  A    between atoms: _221  and  _222
REMARK   92  A    between atoms: _221  and  _224
REMARK   93  A    between atoms: _224  and  _225
REMARK   94  A    between atoms: _225  and  _226
REMARK   95  A    between atoms: _229  and  _231
REMARK   96  A    between atoms: _231  and  _232
REMARK   97  A    between atoms: _231  and  _234
REMARK   98  A    between atoms: _234  and  _235
REMARK   99  A    between atoms: _235  and  _236
REMARK  100  A    between atoms: _236  and  _237
REMARK  101  A    between atoms: _237  and  _238
REMARK  102  A    between atoms: _242  and  _244
REMARK  103  A    between atoms: _244  and  _245
REMARK  104  A    between atoms: _248  and  _250
REMARK  105  A    between atoms: _250  and  _251
REMARK  106  A    between atoms: _250  and  _253
REMARK  107  A    between atoms: _253  and  _254
REMARK  108  A    between atoms: _254  and  _255
REMARK  109  A    between atoms: _258  and  _260
REMARK  110  A    between atoms: _260  and  _261
REMARK  111  A    between atoms: _260  and  _263
REMARK  112  A    between atoms: _263  and  _264
REMARK  113  A    between atoms: _266  and  _268
REMARK  114  A    between atoms: _268  and  _269
REMARK  115  A    between atoms: _268  and  _271
REMARK  116  A    between atoms: _274  and  _276
REMARK  117  A    between atoms: _276  and  _277
REMARK  118  A    between atoms: _276  and  _279
REMARK  119  A    between atoms: _279  and  _280
REMARK  120  A    between atoms: _280  and  _281
REMARK  121  A    between atoms: _284  and  _286
REMARK  122  A    between atoms: _286  and  _287
REMARK  123  A    between atoms: _286  and  _289
REMARK  124  A    between atoms: _289  and  _290
REMARK  125  A    between atoms: _295  and  _297
REMARK  126  A    between atoms: _297  and  _298
REMARK  127  A    between atoms: _297  and  _300
REMARK  128  A    between atoms: _300  and  _301
REMARK  129  A    between atoms: _306  and  _308
REMARK  130  A    between atoms: _308  and  _309
REMARK  131  A    between atoms: _308  and  _311
REMARK  132  A    between atoms: _311  and  _312
REMARK  133  A    between atoms: _318  and  _320
REMARK  134  A    between atoms: _320  and  _321
REMARK  135  A    between atoms: _320  and  _323
REMARK  136  A    between atoms: _323  and  _324
REMARK  137  A    between atoms: _329  and  _330
REMARK  138  A    between atoms: _332  and  _334
REMARK  139  A    between atoms: _334  and  _335
REMARK  140  A    between atoms: _334  and  _337
REMARK  141  A    between atoms: _337  and  _338
REMARK  142  A    between atoms: _343  and  _344
REMARK  143  A    between atoms: _346  and  _348
REMARK  144  A    between atoms: _348  and  _349
REMARK  145  A    between atoms: _348  and  _351
REMARK  146  A    between atoms: _351  and  _352
REMARK  147  A    between atoms: _355  and  _357
REMARK  148  A    between atoms: _357  and  _358
REMARK  149  A    between atoms: _357  and  _360
REMARK  150  A    between atoms: _360  and  _361
REMARK  151  A    between atoms: _364  and  _366
REMARK  152  A    between atoms: _366  and  _367
REMARK  153  A    between atoms: _366  and  _369
REMARK  154  A    between atoms: _369  and  _370
REMARK  155  A    between atoms: _370  and  _371
REMARK  156  A    between atoms: _371  and  _372
REMARK  157  A    between atoms: _372  and  _373
REMARK  158  A    between atoms: _377  and  _379
REMARK  159  A    between atoms: _379  and  _380
REMARK  160  A    between atoms: _383  and  _385
REMARK  161  A    between atoms: _385  and  _386
REMARK  162  A    between atoms: _385  and  _388
REMARK  163  A    between atoms: _388  and  _389
REMARK  164  A    between atoms: _392  and  _394
REMARK  165  A    between atoms: _394  and  _395
REMARK  166  A    between atoms: _394  and  _397
REMARK  167  A    between atoms: _397  and  _398
REMARK  168  A    between atoms: _401  and  _403
REMARK  169  A    between atoms: _403  and  _404
REMARK  170  A    between atoms: _403  and  _406
REMARK  171  A    between atoms: _409  and  _411
REMARK  172  A    between atoms: _411  and  _412
REMARK  173  A    between atoms: _411  and  _414
REMARK  174  A    between atoms: _414  and  _415
REMARK  175  A    between atoms: _420  and  _422
REMARK  176  A    between atoms: _422  and  _423
REMARK  177  A    between atoms: _422  and  _425
REMARK  178  A    between atoms: _425  and  _426
REMARK  179  A    between atoms: _431  and  _433
REMARK  180  A    between atoms: _433  and  _434
REMARK  181  A    between atoms: _437  and  _438
REMARK  182  A    between atoms: _443  and  _445
REMARK  183  A    between atoms: _445  and  _446
REMARK  184  A    between atoms: _445  and  _448
REMARK  185  A    between atoms: _448  and  _449
REMARK  186  A    between atoms: _459  and  _461
REMARK  187  A    between atoms: _461  and  _462
REMARK  188  A    between atoms: _465  and  _467
REMARK  189  A    between atoms: _467  and  _468
REMARK  190  A    between atoms: _467  and  _470
REMARK  191  A    between atoms: _470  and  _471
REMARK  192  A    between atoms: _476  and  _477
REMARK  193  A    between atoms: _479  and  _481
REMARK  194  A    between atoms: _481  and  _482
REMARK  195  A    between atoms: _481  and  _484
REMARK  196  A    between atoms: _484  and  _485
REMARK  197  A    between atoms: _491  and  _493
REMARK  198  A    between atoms: _493  and  _494
REMARK  199  A    between atoms: _493  and  _496
REMARK  200  A    between atoms: _496  and  _497
REMARK  201  A    between atoms: _500  and  _502
REMARK  202  A    between atoms: _502  and  _503
REMARK  203  A    between atoms: _505  and  _507
REMARK  204  A    between atoms: _507  and  _508
REMARK  205  A    between atoms: _507  and  _510
REMARK  206  A    between atoms: _513  and  _515
REMARK  207  A    between atoms: _515  and  _516
REMARK  208  A    between atoms: _515  and  _518
REMARK  209  A    between atoms: _518  and  _519
REMARK  210  A    between atoms: _519  and  _520
REMARK  211  A    between atoms: _520  and  _521
REMARK  212  A    between atoms: _521  and  _522
REMARK  213  A    between atoms: _526  and  _528
REMARK  214  A    between atoms: _528  and  _529
REMARK  215  A    between atoms: _528  and  _531
REMARK  216  A    between atoms: _531  and  _532
REMARK  217  A    between atoms: _532  and  _533
REMARK  218  A    between atoms: _533  and  _534
REMARK  219  A    between atoms: _543  and  _545
REMARK  220  A    between atoms: _545  and  _546
REMARK  221  A    between atoms: _545  and  _548
REMARK  222  A    between atoms: _548  and  _549
REMARK  223  A    between atoms: _549  and  _550
REMARK  224  A    between atoms: _553  and  _555
REMARK  225  A    between atoms: _555  and  _556
REMARK  226  A    between atoms: _555  and  _558
REMARK  227  A    between atoms: _558  and  _559
REMARK  228  A    between atoms: _559  and  _560
REMARK  229  A    between atoms: _563  and  _564
REMARK  230  A    between atoms: _569  and  _571
REMARK  231  A    between atoms: _571  and  _572
REMARK  232  A    between atoms: _571  and  _574
REMARK  233  A    between atoms: _574  and  _575
REMARK  234  A    between atoms: _575  and  _576
REMARK  235  A    between atoms: _578  and  _580
REMARK  236  A    between atoms: _580  and  _581
REMARK  237  A    between atoms: _583  and  _585
REMARK  238  A    between atoms: _585  and  _586
REMARK  239  A    between atoms: _585  and  _588
REMARK  240  A    between atoms: _591  and  _593
REMARK  241  A    between atoms: _593  and  _594
REMARK  242  A    between atoms: _593  and  _596
REMARK  243  A    between atoms: _596  and  _597
REMARK  244  A    between atoms: _607  and  _609
REMARK  245  A    between atoms: _609  and  _610
REMARK  246  A    between atoms: _609  and  _612
REMARK  247  A    between atoms: _612  and  _613
REMARK  248  A    between atoms: _613  and  _614
REMARK  249  A    between atoms: _618  and  _619
REMARK  250  A    between atoms: _624  and  _626
REMARK  251  A    between atoms: _626  and  _627
REMARK  252  A    between atoms: _626  and  _629
REMARK  253  A    between atoms: _629  and  _630
REMARK  254  A    between atoms: _633  and  _635
REMARK  255  A    between atoms: _635  and  _636
REMARK  256  A    between atoms: _635  and  _638
REMARK  257  A    between atoms: _638  and  _639
REMARK  258  A    between atoms: _644  and  _646
REMARK  259  A    between atoms: _646  and  _647
REMARK  260  A    between atoms: _646  and  _649
REMARK  261  A    between atoms: _649  and  _650
REMARK                            x       y       z     vdW  Elec       q    Type
REMARK                         _______ _______ _______ _____ _____    ______ ____
ROOT
ATOM      1  O   HOH     1      14.588   0.648  20.303  0.00  0.00    +0.000 OA
ENDROOT
TORSDOF 0
REMARK  Name = ../refined-set-2016/2zym/2zym_pocket.pdb
REMARK  261 active torsions:
REMARK  status: ('A' for Active; 'I' for Inactive)
REMARK    1  A    between atoms: _1  and  _3
REMARK    2  A    between atoms: _3  and  _4
REMARK    3  A    between atoms: _3  and  _6
REMARK    4  A    between atoms: _6  and  _7
REMARK    5  A    between atoms: _7  and  _8
REMARK    6  A    between atoms: _11  and  _13
REMARK    7  A    between atoms: _13  and  _14
REMARK    8  A    between atoms: _13  and  _16
REMARK    9  A    between atoms: _16  and  _17
REMARK   10  A    between atoms: _22  and  _24
REMARK   11  A    between atoms: _24  and  _25
REMARK   12  A    between atoms: _28  and  _30
REMARK   13  A    between atoms: _30  and  _31
REMARK   14  A    between atoms: _30  and  _33
REMARK   15  A    between atoms: _33  and  _34
REMARK   16  A    between atoms: _37  and  _39
REMARK   17  A    between atoms: _39  and  _40
REMARK   18  A    between atoms: _39  and  _42
REMARK   19  A    between atoms: _42  and  _43
REMARK   20  A    between atoms: _43  and  _44
REMARK   21  A    between atoms: _49  and  _51
REMARK   22  A    between atoms: _51  and  _52
REMARK   23  A    between atoms: _51  and  _54
REMARK   24  A    between atoms: _57  and  _59
REMARK   25  A    between atoms: _59  and  _60
REMARK   26  A    between atoms: _63  and  _65
REMARK   27  A    between atoms: _65  and  _66
REMARK   28  A    between atoms: _65  and  _68
REMARK   29  A    between atoms: _68  and  _69
REMARK   30  A    between atoms: _72  and  _74
REMARK   31  A    between atoms: _74  and  _75
REMARK   32  A    between atoms: _74  and  _77
REMARK   33  A    between atoms: _77  and  _78
REMARK   34  A    between atoms: _81  and  _83
REMARK   35  A    between atoms: _83  and  _84
REMARK   36  A    between atoms: _83  and  _86
REMARK   37  A    between atoms: _86  and  _87
REMARK   38  A    between atoms: _87  and  _88
REMARK   39  A    between atoms: _88  and  _89
REMARK   40  A    between atoms: _89  and  _90
REMARK   41  A    between atoms: _94  and  _96
REMARK   42  A    between atoms: _96  and  _97
REMARK   43  A    between atoms: _96  and  _99
REMARK   44  A    between atoms: _99  and  _100
REMARK   45  A    between atoms: _100  and  _101
REMARK   46  A    between atoms: _106  and  _108
REMARK   47  A    between atoms: _108  and  _109
REMARK   48  A    between atoms: _108  and  _111
REMARK   49  A    between atoms: _111  and  _112
REMARK   50  A    between atoms: _112  and  _113
REMARK   51  A    between atoms: _118  and  _120
REMARK   52  A    between atoms: _120  and  _121
REMARK   53  A    between atoms: _120  and  _123
REMARK   54  A    between atoms: _123  and  _124
REMARK   55  A    between atoms: _124  and  _125
REMARK   56  A    between atoms: _128  and  _130
REMARK   57  A    between atoms: _130  and  _131
REMARK   58  A    between atoms: _130  and  _133
REMARK   59  A    between atoms: _133  and  _134
REMARK   60  A    between atoms: _134  and  _135
REMARK   61  A    between atoms: _135  and  _136
REMARK   62  A    between atoms: _136  and  _137
REMARK   63  A    between atoms: _141  and  _143
REMARK   64  A    between atoms: _143  and  _144
REMARK   65  A    between atoms: _143  and  _146
REMARK   66  A    between atoms: _146  and  _147
REMARK   67  A    between atoms: _150  and  _152
REMARK   68  A    between atoms: _152  and  _153
REMARK   69  A    between atoms: _152  and  _155
REMARK   70  A    between atoms: _155  and  _156
REMARK   71  A    between atoms: _167  and  _168
REMARK   72  A    between atoms: _173  and  _175
REMARK   73  A    between atoms: _175  and  _176
REMARK   74  A    between atoms: _175  and  _178
REMARK   75  A    between atoms: _178  and  _179
REMARK   76  A    between atoms: _184  and  _186
REMARK   77  A    between atoms: _186  and  _187
REMARK   78  A    between atoms: _186  and  _189
REMARK   79  A    between atoms: _189  and  _190
REMARK   80  A    between atoms: _193  and  _195
REMARK   81  A    between atoms: _195  and  _196
REMARK   82  A    between atoms: _195  and  _198
REMARK   83  A    between atoms: _198  and  _199
REMARK   84  A    between atoms: _199  and  _200
REMARK   85  A    between atoms: _200  and  _201
REMARK   86  A    between atoms: _210  and  _212
REMARK   87  A    between atoms: _212  and  _213
REMARK   88  A    between atoms: _212  and  _215
REMARK   89  A    between atoms: _215  and  _216
REMARK   90  A    between atoms: _219  and  _221
REMARK   91  A    between atoms: _221  and  _222
REMARK   92  A    between atoms: _221  and  _224
REMARK   93  A    between atoms: _224  and  _225
REMARK   94  A    between atoms: _225  and  _226
REMARK   95  A    between atoms: _229  and  _231
REMARK   96  A    between atoms: _231  and  _232
REMARK   97  A    between atoms: _231  and  _234
REMARK   98  A    between atoms: _234  and  _235
REMARK   99  A    between atoms: _235  and  _236
REMARK  100  A    between atoms: _236  and  _237
REMARK  101  A    between atoms: _237  and  _238
REMARK  102  A    between atoms: _242  and  _244
REMARK  103  A    between atoms: _244  and  _245
REMARK  104  A    between atoms: _248  and  _250
REMARK  105  A    between atoms: _250  and  _251
REMARK  106  A    between atoms: _250  and  _253
REMARK  107  A    between atoms: _253  and  _254
REMARK  108  A    between atoms: _254  and  _255
REMARK  109  A    between atoms: _258  and  _260
REMARK  110  A    between atoms: _260  and  _261
REMARK  111  A    between atoms: _260  and  _263
REMARK  112  A    between atoms: _263  and  _264
REMARK  113  A    between atoms: _266  and  _268
REMARK  114  A    between atoms: _268  and  _269
REMARK  115  A    between atoms: _268  and  _271
REMARK  116  A    between atoms: _274  and  _276
REMARK  117  A    between atoms: _276  and  _277
REMARK  118  A    between atoms: _276  and  _279
REMARK  119  A    between atoms: _279  and  _280
REMARK  120  A    between atoms: _280  and  _281
REMARK  121  A    between atoms: _284  and  _286
REMARK  122  A    between atoms: _286  and  _287
REMARK  123  A    between atoms: _286  and  _289
REMARK  124  A    between atoms: _289  and  _290
REMARK  125  A    between atoms: _295  and  _297
REMARK  126  A    between atoms: _297  and  _298
REMARK  127  A    between atoms: _297  and  _300
REMARK  128  A    between atoms: _300  and  _301
REMARK  129  A    between atoms: _306  and  _308
REMARK  130  A    between atoms: _308  and  _309
REMARK  131  A    between atoms: _308  and  _311
REMARK  132  A    between atoms: _311  and  _312
REMARK  133  A    between atoms: _318  and  _320
REMARK  134  A    between atoms: _320  and  _321
REMARK  135  A    between atoms: _320  and  _323
REMARK  136  A    between atoms: _323  and  _324
REMARK  137  A    between atoms: _329  and  _330
REMARK  138  A    between atoms: _332  and  _334
REMARK  139  A    between atoms: _334  and  _335
REMARK  140  A    between atoms: _334  and  _337
REMARK  141  A    between atoms: _337  and  _338
REMARK  142  A    between atoms: _343  and  _344
REMARK  143  A    between atoms: _346  and  _348
REMARK  144  A    between atoms: _348  and  _349
REMARK  145  A    between atoms: _348  and  _351
REMARK  146  A    between atoms: _351  and  _352
REMARK  147  A    between atoms: _355  and  _357
REMARK  148  A    between atoms: _357  and  _358
REMARK  149  A    between atoms: _357  and  _360
REMARK  150  A    between atoms: _360  and  _361
REMARK  151  A    between atoms: _364  and  _366
REMARK  152  A    between atoms: _366  and  _367
REMARK  153  A    between atoms: _366  and  _369
REMARK  154  A    between atoms: _369  and  _370
REMARK  155  A    between atoms: _370  and  _371
REMARK  156  A    between atoms: _371  and  _372
REMARK  157  A    between atoms: _372  and  _373
REMARK  158  A    between atoms: _377  and  _379
REMARK  159  A    between atoms: _379  and  _380
REMARK  160  A    between atoms: _383  and  _385
REMARK  161  A    between atoms: _385  and  _386
REMARK  162  A    between atoms: _385  and  _388
REMARK  163  A    between atoms: _388  and  _389
REMARK  164  A    between atoms: _392  and  _394
REMARK  165  A    between atoms: _394  and  _395
REMARK  166  A    between atoms: _394  and  _397
REMARK  167  A    between atoms: _397  and  _398
REMARK  168  A    between atoms: _401  and  _403
REMARK  169  A    between atoms: _403  and  _404
REMARK  170  A    between atoms: _403  and  _406
REMARK  171  A    between atoms: _409  and  _411
REMARK  172  A    between atoms: _411  and  _412
REMARK  173  A    between atoms: _411  and  _414
REMARK  174  A    between atoms: _414  and  _415
REMARK  175  A    between atoms: _420  and  _422
REMARK  176  A    between atoms: _422  and  _423
REMARK  177  A    between atoms: _422  and  _425
REMARK  178  A    between atoms: _425  and  _426
REMARK  179  A    between atoms: _431  and  _433
REMARK  180  A    between atoms: _433  and  _434
REMARK  181  A    between atoms: _437  and  _438
REMARK  182  A    between atoms: _443  and  _445
REMARK  183  A    between atoms: _445  and  _446
REMARK  184  A    between atoms: _445  and  _448
REMARK  185  A    between atoms: _448  and  _449
REMARK  186  A    between atoms: _459  and  _461
REMARK  187  A    between atoms: _461  and  _462
REMARK  188  A    between atoms: _465  and  _467
REMARK  189  A    between atoms: _467  and  _468
REMARK  190  A    between atoms: _467  and  _470
REMARK  191  A    between atoms: _470  and  _471
REMARK  192  A    between atoms: _476  and  _477
REMARK  193  A    between atoms: _479  and  _481
REMARK  194  A    between atoms: _481  and  _482
REMARK  195  A    between atoms: _481  and  _484
REMARK  196  A    between atoms: _484  and  _485
REMARK  197  A    between atoms: _491  and  _493
REMARK  198  A    between atoms: _493  and  _494
REMARK  199  A    between atoms: _493  and  _496
REMARK  200  A    between atoms: _496  and  _497
REMARK  201  A    between atoms: _500  and  _502
REMARK  202  A    between atoms: _502  and  _503
REMARK  203  A    between atoms: _505  and  _507
REMARK  204  A    between atoms: _507  and  _508
REMARK  205  A    between atoms: _507  and  _510
REMARK  206  A    between atoms: _513  and  _515
REMARK  207  A    between atoms: _515  and  _516
REMARK  208  A    between atoms: _515  and  _518
REMARK  209  A    between atoms: _518  and  _519
REMARK  210  A    between atoms: _519  and  _520
REMARK  211  A    between atoms: _520  and  _521
REMARK  212  A    between atoms: _521  and  _522
REMARK  213  A    between atoms: _526  and  _528
REMARK  214  A    between atoms: _528  and  _529
REMARK  215  A    between atoms: _528  and  _531
REMARK  216  A    between atoms: _531  and  _532
REMARK  217  A    between atoms: _532  and  _533
REMARK  218  A    between atoms: _533  and  _534
REMARK  219  A    between atoms: _543  and  _545
REMARK  220  A    between atoms: _545  and  _546
REMARK  221  A    between atoms: _545  and  _548
REMARK  222  A    between atoms: _548  and  _549
REMARK  223  A    between atoms: _549  and  _550
REMARK  224  A    between atoms: _553  and  _555
REMARK  225  A    between atoms: _555  and  _556
REMARK  226  A    between atoms: _555  and  _558
REMARK  227  A    between atoms: _558  and  _559
REMARK  228  A    between atoms: _559  and  _560
REMARK  229  A    between atoms: _563  and  _564
REMARK  230  A    between atoms: _569  and  _571
REMARK  231  A    between atoms: _571  and  _572
REMARK  232  A    between atoms: _571  and  _574
REMARK  233  A    between atoms: _574  and  _575
REMARK  234  A    between atoms: _575  and  _576
REMARK  235  A    between atoms: _578  and  _580
REMARK  236  A    between atoms: _580  and  _581
REMARK  237  A    between atoms: _583  and  _585
REMARK  238  A    between atoms: _585  and  _586
REMARK  239  A    between atoms: _585  and  _588
REMARK  240  A    between atoms: _591  and  _593
REMARK  241  A    between atoms: _593  and  _594
REMARK  242  A    between atoms: _593  and  _596
REMARK  243  A    between atoms: _596  and  _597
REMARK  244  A    between atoms: _607  and  _609
REMARK  245  A    between atoms: _609  and  _610
REMARK  246  A    between atoms: _609  and  _612
REMARK  247  A    between atoms: _612  and  _613
REMARK  248  A    between atoms: _613  and  _614
REMARK  249  A    between atoms: _618  and  _619
REMARK  250  A    between atoms: _624  and  _626
REMARK  251  A    between atoms: _626  and  _627
REMARK  252  A    between atoms: _626  and  _629
REMARK  253  A    between atoms: _629  and  _630
REMARK  254  A    between atoms: _633  and  _635
REMARK  255  A    between atoms: _635  and  _636
REMARK  256  A    between atoms: _635  and  _638
REMARK  257  A    between atoms: _638  and  _639
REMARK  258  A    between atoms: _644  and  _646
REMARK  259  A    between atoms: _646  and  _647
REMARK  260  A    between atoms: _646  and  _649
REMARK  261  A    between atoms: _649  and  _650
REMARK                            x       y       z     vdW  Elec       q    Type
REMARK                         _______ _______ _______ _____ _____    ______ ____
ROOT
ATOM      1  O   HOH     1      20.150   9.183  22.445  0.00  0.00    +0.000 OA
ENDROOT
TORSDOF 0
REMARK  Name = ../refined-set-2016/2zym/2zym_pocket.pdb
REMARK  261 active torsions:
REMARK  status: ('A' for Active; 'I' for Inactive)
REMARK    1  A    between atoms: _1  and  _3
REMARK    2  A    between atoms: _3  and  _4
REMARK    3  A    between atoms: _3  and  _6
REMARK    4  A    between atoms: _6  and  _7
REMARK    5  A    between atoms: _7  and  _8
REMARK    6  A    between atoms: _11  and  _13
REMARK    7  A    between atoms: _13  and  _14
REMARK    8  A    between atoms: _13  and  _16
REMARK    9  A    between atoms: _16  and  _17
REMARK   10  A    between atoms: _22  and  _24
REMARK   11  A    between atoms: _24  and  _25
REMARK   12  A    between atoms: _28  and  _30
REMARK   13  A    between atoms: _30  and  _31
REMARK   14  A    between atoms: _30  and  _33
REMARK   15  A    between atoms: _33  and  _34
REMARK   16  A    between atoms: _37  and  _39
REMARK   17  A    between atoms: _39  and  _40
REMARK   18  A    between atoms: _39  and  _42
REMARK   19  A    between atoms: _42  and  _43
REMARK   20  A    between atoms: _43  and  _44
REMARK   21  A    between atoms: _49  and  _51
REMARK   22  A    between atoms: _51  and  _52
REMARK   23  A    between atoms: _51  and  _54
REMARK   24  A    between atoms: _57  and  _59
REMARK   25  A    between atoms: _59  and  _60
REMARK   26  A    between atoms: _63  and  _65
REMARK   27  A    between atoms: _65  and  _66
REMARK   28  A    between atoms: _65  and  _68
REMARK   29  A    between atoms: _68  and  _69
REMARK   30  A    between atoms: _72  and  _74
REMARK   31  A    between atoms: _74  and  _75
REMARK   32  A    between atoms: _74  and  _77
REMARK   33  A    between atoms: _77  and  _78
REMARK   34  A    between atoms: _81  and  _83
REMARK   35  A    between atoms: _83  and  _84
REMARK   36  A    between atoms: _83  and  _86
REMARK   37  A    between atoms: _86  and  _87
REMARK   38  A    between atoms: _87  and  _88
REMARK   39  A    between atoms: _88  and  _89
REMARK   40  A    between atoms: _89  and  _90
REMARK   41  A    between atoms: _94  and  _96
REMARK   42  A    between atoms: _96  and  _97
REMARK   43  A    between atoms: _96  and  _99
REMARK   44  A    between atoms: _99  and  _100
REMARK   45  A    between atoms: _100  and  _101
REMARK   46  A    between atoms: _106  and  _108
REMARK   47  A    between atoms: _108  and  _109
REMARK   48  A    between atoms: _108  and  _111
REMARK   49  A    between atoms: _111  and  _112
REMARK   50  A    between atoms: _112  and  _113
REMARK   51  A    between atoms: _118  and  _120
REMARK   52  A    between atoms: _120  and  _121
REMARK   53  A    between atoms: _120  and  _123
REMARK   54  A    between atoms: _123  and  _124
REMARK   55  A    between atoms: _124  and  _125
REMARK   56  A    between atoms: _128  and  _130
REMARK   57  A    between atoms: _130  and  _131
REMARK   58  A    between atoms: _130  and  _133
REMARK   59  A    between atoms: _133  and  _134
REMARK   60  A    between atoms: _134  and  _135
REMARK   61  A    between atoms: _135  and  _136
REMARK   62  A    between atoms: _136  and  _137
REMARK   63  A    between atoms: _141  and  _143
REMARK   64  A    between atoms: _143  and  _144
REMARK   65  A    between atoms: _143  and  _146
REMARK   66  A    between atoms: _146  and  _147
REMARK   67  A    between atoms: _150  and  _152
REMARK   68  A    between atoms: _152  and  _153
REMARK   69  A    between atoms: _152  and  _155
REMARK   70  A    between atoms: _155  and  _156
REMARK   71  A    between atoms: _167  and  _168
REMARK   72  A    between atoms: _173  and  _175
REMARK   73  A    between atoms: _175  and  _176
REMARK   74  A    between atoms: _175  and  _178
REMARK   75  A    between atoms: _178  and  _179
REMARK   76  A    between atoms: _184  and  _186
REMARK   77  A    between atoms: _186  and  _187
REMARK   78  A    between atoms: _186  and  _189
REMARK   79  A    between atoms: _189  and  _190
REMARK   80  A    between atoms: _193  and  _195
REMARK   81  A    between atoms: _195  and  _196
REMARK   82  A    between atoms: _195  and  _198
REMARK   83  A    between atoms: _198  and  _199
REMARK   84  A    between atoms: _199  and  _200
REMARK   85  A    between atoms: _200  and  _201
REMARK   86  A    between atoms: _210  and  _212
REMARK   87  A    between atoms: _212  and  _213
REMARK   88  A    between atoms: _212  and  _215
REMARK   89  A    between atoms: _215  and  _216
REMARK   90  A    between atoms: _219  and  _221
REMARK   91  A    between atoms: _221  and  _222
REMARK   92  A    between atoms: _221  and  _224
REMARK   93  A    between atoms: _224  and  _225
REMARK   94  A    between atoms: _225  and  _226
REMARK   95  A    between atoms: _229  and  _231
REMARK   96  A    between atoms: _231  and  _232
REMARK   97  A    between atoms: _231  and  _234
REMARK   98  A    between atoms: _234  and  _235
REMARK   99  A    between atoms: _235  and  _236
REMARK  100  A    between atoms: _236  and  _237
REMARK  101  A    between atoms: _237  and  _238
REMARK  102  A    between atoms: _242  and  _244
REMARK  103  A    between atoms: _244  and  _245
REMARK  104  A    between atoms: _248  and  _250
REMARK  105  A    between atoms: _250  and  _251
REMARK  106  A    between atoms: _250  and  _253
REMARK  107  A    between atoms: _253  and  _254
REMARK  108  A    between atoms: _254  and  _255
REMARK  109  A    between atoms: _258  and  _260
REMARK  110  A    between atoms: _260  and  _261
REMARK  111  A    between atoms: _260  and  _263
REMARK  112  A    between atoms: _263  and  _264
REMARK  113  A    between atoms: _266  and  _268
REMARK  114  A    between atoms: _268  and  _269
REMARK  115  A    between atoms: _268  and  _271
REMARK  116  A    between atoms: _274  and  _276
REMARK  117  A    between atoms: _276  and  _277
REMARK  118  A    between atoms: _276  and  _279
REMARK  119  A    between atoms: _279  and  _280
REMARK  120  A    between atoms: _280  and  _281
REMARK  121  A    between atoms: _284  and  _286
REMARK  122  A    between atoms: _286  and  _287
REMARK  123  A    between atoms: _286  and  _289
REMARK  124  A    between atoms: _289  and  _290
REMARK  125  A    between atoms: _295  and  _297
REMARK  126  A    between atoms: _297  and  _298
REMARK  127  A    between atoms: _297  and  _300
REMARK  128  A    between atoms: _300  and  _301
REMARK  129  A    between atoms: _306  and  _308
REMARK  130  A    between atoms: _308  and  _309
REMARK  131  A    between atoms: _308  and  _311
REMARK  132  A    between atoms: _311  and  _312
REMARK  133  A    between atoms: _318  and  _320
REMARK  134  A    between atoms: _320  and  _321
REMARK  135  A    between atoms: _320  and  _323
REMARK  136  A    between atoms: _323  and  _324
REMARK  137  A    between atoms: _329  and  _330
REMARK  138  A    between atoms: _332  and  _334
REMARK  139  A    between atoms: _334  and  _335
REMARK  140  A    between atoms: _334  and  _337
REMARK  141  A    between atoms: _337  and  _338
REMARK  142  A    between atoms: _343  and  _344
REMARK  143  A    between atoms: _346  and  _348
REMARK  144  A    between atoms: _348  and  _349
REMARK  145  A    between atoms: _348  and  _351
REMARK  146  A    between atoms: _351  and  _352
REMARK  147  A    between atoms: _355  and  _357
REMARK  148  A    between atoms: _357  and  _358
REMARK  149  A    between atoms: _357  and  _360
REMARK  150  A    between atoms: _360  and  _361
REMARK  151  A    between atoms: _364  and  _366
REMARK  152  A    between atoms: _366  and  _367
REMARK  153  A    between atoms: _366  and  _369
REMARK  154  A    between atoms: _369  and  _370
REMARK  155  A    between atoms: _370  and  _371
REMARK  156  A    between atoms: _371  and  _372
REMARK  157  A    between atoms: _372  and  _373
REMARK  158  A    between atoms: _377  and  _379
REMARK  159  A    between atoms: _379  and  _380
REMARK  160  A    between atoms: _383  and  _385
REMARK  161  A    between atoms: _385  and  _386
REMARK  162  A    between atoms: _385  and  _388
REMARK  163  A    between atoms: _388  and  _389
REMARK  164  A    between atoms: _392  and  _394
REMARK  165  A    between atoms: _394  and  _395
REMARK  166  A    between atoms: _394  and  _397
REMARK  167  A    between atoms: _397  and  _398
REMARK  168  A    between atoms: _401  and  _403
REMARK  169  A    between atoms: _403  and  _404
REMARK  170  A    between atoms: _403  and  _406
REMARK  171  A    between atoms: _409  and  _411
REMARK  172  A    between atoms: _411  and  _412
REMARK  173  A    between atoms: _411  and  _414
REMARK  174  A    between atoms: _414  and  _415
REMARK  175  A    between atoms: _420  and  _422
REMARK  176  A    between atoms: _422  and  _423
REMARK  177  A    between atoms: _422  and  _425
REMARK  178  A    between atoms: _425  and  _426
REMARK  179  A    between atoms: _431  and  _433
REMARK  180  A    between atoms: _433  and  _434
REMARK  181  A    between atoms: _437  and  _438
REMARK  182  A    between atoms: _443  and  _445
REMARK  183  A    between atoms: _445  and  _446
REMARK  184  A    between atoms: _445  and  _448
REMARK  185  A    between atoms: _448  and  _449
REMARK  186  A    between atoms: _459  and  _461
REMARK  187  A    between atoms: _461  and  _462
REMARK  188  A    between atoms: _465  and  _467
REMARK  189  A    between atoms: _467  and  _468
REMARK  190  A    between atoms: _467  and  _470
REMARK  191  A    between atoms: _470  and  _471
REMARK  192  A    between atoms: _476  and  _477
REMARK  193  A    between atoms: _479  and  _481
REMARK  194  A    between atoms: _481  and  _482
REMARK  195  A    between atoms: _481  and  _484
REMARK  196  A    between atoms: _484  and  _485
REMARK  197  A    between atoms: _491  and  _493
REMARK  198  A    between atoms: _493  and  _494
REMARK  199  A    between atoms: _493  and  _496
REMARK  200  A    between atoms: _496  and  _497
REMARK  201  A    between atoms: _500  and  _502
REMARK  202  A    between atoms: _502  and  _503
REMARK  203  A    between atoms: _505  and  _507
REMARK  204  A    between atoms: _507  and  _508
REMARK  205  A    between atoms: _507  and  _510
REMARK  206  A    between atoms: _513  and  _515
REMARK  207  A    between atoms: _515  and  _516
REMARK  208  A    between atoms: _515  and  _518
REMARK  209  A    between atoms: _518  and  _519
REMARK  210  A    between atoms: _519  and  _520
REMARK  211  A    between atoms: _520  and  _521
REMARK  212  A    between atoms: _521  and  _522
REMARK  213  A    between atoms: _526  and  _528
REMARK  214  A    between atoms: _528  and  _529
REMARK  215  A    between atoms: _528  and  _531
REMARK  216  A    between atoms: _531  and  _532
REMARK  217  A    between atoms: _532  and  _533
REMARK  218  A    between atoms: _533  and  _534
REMARK  219  A    between atoms: _543  and  _545
REMARK  220  A    between atoms: _545  and  _546
REMARK  221  A    between atoms: _545  and  _548
REMARK  222  A    between atoms: _548  and  _549
REMARK  223  A    between atoms: _549  and  _550
REMARK  224  A    between atoms: _553  and  _555
REMARK  225  A    between atoms: _555  and  _556
REMARK  226  A    between atoms: _555  and  _558
REMARK  227  A    between atoms: _558  and  _559
REMARK  228  A    between atoms: _559  and  _560
REMARK  229  A    between atoms: _563  and  _564
REMARK  230  A    between atoms: _569  and  _571
REMARK  231  A    between atoms: _571  and  _572
REMARK  232  A    between atoms: _571  and  _574
REMARK  233  A    between atoms: _574  and  _575
REMARK  234  A    between atoms: _575  and  _576
REMARK  235  A    between atoms: _578  and  _580
REMARK  236  A    between atoms: _580  and  _581
REMARK  237  A    between atoms: _583  and  _585
REMARK  238  A    between atoms: _585  and  _586
REMARK  239  A    between atoms: _585  and  _588
REMARK  240  A    between atoms: _591  and  _593
REMARK  241  A    between atoms: _593  and  _594
REMARK  242  A    between atoms: _593  and  _596
REMARK  243  A    between atoms: _596  and  _597
REMARK  244  A    between atoms: _607  and  _609
REMARK  245  A    between atoms: _609  and  _610
REMARK  246  A    between atoms: _609  and  _612
REMARK  247  A    between atoms: _612  and  _613
REMARK  248  A    between atoms: _613  and  _614
REMARK  249  A    between atoms: _618  and  _619
REMARK  250  A    between atoms: _624  and  _626
REMARK  251  A    between atoms: _626  and  _627
REMARK  252  A    between atoms: _626  and  _629
REMARK  253  A    between atoms: _629  and  _630
REMARK  254  A    between atoms: _633  and  _635
REMARK  255  A    between atoms: _635  and  _636
REMARK  256  A    between atoms: _635  and  _638
REMARK  257  A    between atoms: _638  and  _639
REMARK  258  A    between atoms: _644  and  _646
REMARK  259  A    between atoms: _646  and  _647
REMARK  260  A    between atoms: _646  and  _649
REMARK  261  A    between atoms: _649  and  _650
REMARK                            x       y       z     vdW  Elec       q    Type
REMARK                         _______ _______ _______ _____ _____    ______ ____
ROOT
ATOM      1  O   HOH     1      21.045  -3.555  11.397  0.00  0.00    +0.000 OA
ENDROOT
TORSDOF 0
REMARK  Name = ../refined-set-2016/2zym/2zym_pocket.pdb
REMARK  261 active torsions:
REMARK  status: ('A' for Active; 'I' for Inactive)
REMARK    1  A    between atoms: _1  and  _3
REMARK    2  A    between atoms: _3  and  _4
REMARK    3  A    between atoms: _3  and  _6
REMARK    4  A    between atoms: _6  and  _7
REMARK    5  A    between atoms: _7  and  _8
REMARK    6  A    between atoms: _11  and  _13
REMARK    7  A    between atoms: _13  and  _14
REMARK    8  A    between atoms: _13  and  _16
REMARK    9  A    between atoms: _16  and  _17
REMARK   10  A    between atoms: _22  and  _24
REMARK   11  A    between atoms: _24  and  _25
REMARK   12  A    between atoms: _28  and  _30
REMARK   13  A    between atoms: _30  and  _31
REMARK   14  A    between atoms: _30  and  _33
REMARK   15  A    between atoms: _33  and  _34
REMARK   16  A    between atoms: _37  and  _39
REMARK   17  A    between atoms: _39  and  _40
REMARK   18  A    between atoms: _39  and  _42
REMARK   19  A    between atoms: _42  and  _43
REMARK   20  A    between atoms: _43  and  _44
REMARK   21  A    between atoms: _49  and  _51
REMARK   22  A    between atoms: _51  and  _52
REMARK   23  A    between atoms: _51  and  _54
REMARK   24  A    between atoms: _57  and  _59
REMARK   25  A    between atoms: _59  and  _60
REMARK   26  A    between atoms: _63  and  _65
REMARK   27  A    between atoms: _65  and  _66
REMARK   28  A    between atoms: _65  and  _68
REMARK   29  A    between atoms: _68  and  _69
REMARK   30  A    between atoms: _72  and  _74
REMARK   31  A    between atoms: _74  and  _75
REMARK   32  A    between atoms: _74  and  _77
REMARK   33  A    between atoms: _77  and  _78
REMARK   34  A    between atoms: _81  and  _83
REMARK   35  A    between atoms: _83  and  _84
REMARK   36  A    between atoms: _83  and  _86
REMARK   37  A    between atoms: _86  and  _87
REMARK   38  A    between atoms: _87  and  _88
REMARK   39  A    between atoms: _88  and  _89
REMARK   40  A    between atoms: _89  and  _90
REMARK   41  A    between atoms: _94  and  _96
REMARK   42  A    between atoms: _96  and  _97
REMARK   43  A    between atoms: _96  and  _99
REMARK   44  A    between atoms: _99  and  _100
REMARK   45  A    between atoms: _100  and  _101
REMARK   46  A    between atoms: _106  and  _108
REMARK   47  A    between atoms: _108  and  _109
REMARK   48  A    between atoms: _108  and  _111
REMARK   49  A    between atoms: _111  and  _112
REMARK   50  A    between atoms: _112  and  _113
REMARK   51  A    between atoms: _118  and  _120
REMARK   52  A    between atoms: _120  and  _121
REMARK   53  A    between atoms: _120  and  _123
REMARK   54  A    between atoms: _123  and  _124
REMARK   55  A    between atoms: _124  and  _125
REMARK   56  A    between atoms: _128  and  _130
REMARK   57  A    between atoms: _130  and  _131
REMARK   58  A    between atoms: _130  and  _133
REMARK   59  A    between atoms: _133  and  _134
REMARK   60  A    between atoms: _134  and  _135
REMARK   61  A    between atoms: _135  and  _136
REMARK   62  A    between atoms: _136  and  _137
REMARK   63  A    between atoms: _141  and  _143
REMARK   64  A    between atoms: _143  and  _144
REMARK   65  A    between atoms: _143  and  _146
REMARK   66  A    between atoms: _146  and  _147
REMARK   67  A    between atoms: _150  and  _152
REMARK   68  A    between atoms: _152  and  _153
REMARK   69  A    between atoms: _152  and  _155
REMARK   70  A    between atoms: _155  and  _156
REMARK   71  A    between atoms: _167  and  _168
REMARK   72  A    between atoms: _173  and  _175
REMARK   73  A    between atoms: _175  and  _176
REMARK   74  A    between atoms: _175  and  _178
REMARK   75  A    between atoms: _178  and  _179
REMARK   76  A    between atoms: _184  and  _186
REMARK   77  A    between atoms: _186  and  _187
REMARK   78  A    between atoms: _186  and  _189
REMARK   79  A    between atoms: _189  and  _190
REMARK   80  A    between atoms: _193  and  _195
REMARK   81  A    between atoms: _195  and  _196
REMARK   82  A    between atoms: _195  and  _198
REMARK   83  A    between atoms: _198  and  _199
REMARK   84  A    between atoms: _199  and  _200
REMARK   85  A    between atoms: _200  and  _201
REMARK   86  A    between atoms: _210  and  _212
REMARK   87  A    between atoms: _212  and  _213
REMARK   88  A    between atoms: _212  and  _215
REMARK   89  A    between atoms: _215  and  _216
REMARK   90  A    between atoms: _219  and  _221
REMARK   91  A    between atoms: _221  and  _222
REMARK   92  A    between atoms: _221  and  _224
REMARK   93  A    between atoms: _224  and  _225
REMARK   94  A    between atoms: _225  and  _226
REMARK   95  A    between atoms: _229  and  _231
REMARK   96  A    between atoms: _231  and  _232
REMARK   97  A    between atoms: _231  and  _234
REMARK   98  A    between atoms: _234  and  _235
REMARK   99  A    between atoms: _235  and  _236
REMARK  100  A    between atoms: _236  and  _237
REMARK  101  A    between atoms: _237  and  _238
REMARK  102  A    between atoms: _242  and  _244
REMARK  103  A    between atoms: _244  and  _245
REMARK  104  A    between atoms: _248  and  _250
REMARK  105  A    between atoms: _250  and  _251
REMARK  106  A    between atoms: _250  and  _253
REMARK  107  A    between atoms: _253  and  _254
REMARK  108  A    between atoms: _254  and  _255
REMARK  109  A    between atoms: _258  and  _260
REMARK  110  A    between atoms: _260  and  _261
REMARK  111  A    between atoms: _260  and  _263
REMARK  112  A    between atoms: _263  and  _264
REMARK  113  A    between atoms: _266  and  _268
REMARK  114  A    between atoms: _268  and  _269
REMARK  115  A    between atoms: _268  and  _271
REMARK  116  A    between atoms: _274  and  _276
REMARK  117  A    between atoms: _276  and  _277
REMARK  118  A    between atoms: _276  and  _279
REMARK  119  A    between atoms: _279  and  _280
REMARK  120  A    between atoms: _280  and  _281
REMARK  121  A    between atoms: _284  and  _286
REMARK  122  A    between atoms: _286  and  _287
REMARK  123  A    between atoms: _286  and  _289
REMARK  124  A    between atoms: _289  and  _290
REMARK  125  A    between atoms: _295  and  _297
REMARK  126  A    between atoms: _297  and  _298
REMARK  127  A    between atoms: _297  and  _300
REMARK  128  A    between atoms: _300  and  _301
REMARK  129  A    between atoms: _306  and  _308
REMARK  130  A    between atoms: _308  and  _309
REMARK  131  A    between atoms: _308  and  _311
REMARK  132  A    between atoms: _311  and  _312
REMARK  133  A    between atoms: _318  and  _320
REMARK  134  A    between atoms: _320  and  _321
REMARK  135  A    between atoms: _320  and  _323
REMARK  136  A    between atoms: _323  and  _324
REMARK  137  A    between atoms: _329  and  _330
REMARK  138  A    between atoms: _332  and  _334
REMARK  139  A    between atoms: _334  and  _335
REMARK  140  A    between atoms: _334  and  _337
REMARK  141  A    between atoms: _337  and  _338
REMARK  142  A    between atoms: _343  and  _344
REMARK  143  A    between atoms: _346  and  _348
REMARK  144  A    between atoms: _348  and  _349
REMARK  145  A    between atoms: _348  and  _351
REMARK  146  A    between atoms: _351  and  _352
REMARK  147  A    between atoms: _355  and  _357
REMARK  148  A    between atoms: _357  and  _358
REMARK  149  A    between atoms: _357  and  _360
REMARK  150  A    between atoms: _360  and  _361
REMARK  151  A    between atoms: _364  and  _366
REMARK  152  A    between atoms: _366  and  _367
REMARK  153  A    between atoms: _366  and  _369
REMARK  154  A    between atoms: _369  and  _370
REMARK  155  A    between atoms: _370  and  _371
REMARK  156  A    between atoms: _371  and  _372
REMARK  157  A    between atoms: _372  and  _373
REMARK  158  A    between atoms: _377  and  _379
REMARK  159  A    between atoms: _379  and  _380
REMARK  160  A    between atoms: _383  and  _385
REMARK  161  A    between atoms: _385  and  _386
REMARK  162  A    between atoms: _385  and  _388
REMARK  163  A    between atoms: _388  and  _389
REMARK  164  A    between atoms: _392  and  _394
REMARK  165  A    between atoms: _394  and  _395
REMARK  166  A    between atoms: _394  and  _397
REMARK  167  A    between atoms: _397  and  _398
REMARK  168  A    between atoms: _401  and  _403
REMARK  169  A    between atoms: _403  and  _404
REMARK  170  A    between atoms: _403  and  _406
REMARK  171  A    between atoms: _409  and  _411
REMARK  172  A    between atoms: _411  and  _412
REMARK  173  A    between atoms: _411  and  _414
REMARK  174  A    between atoms: _414  and  _415
REMARK  175  A    between atoms: _420  and  _422
REMARK  176  A    between atoms: _422  and  _423
REMARK  177  A    between atoms: _422  and  _425
REMARK  178  A    between atoms: _425  and  _426
REMARK  179  A    between atoms: _431  and  _433
REMARK  180  A    between atoms: _433  and  _434
REMARK  181  A    between atoms: _437  and  _438
REMARK  182  A    between atoms: _443  and  _445
REMARK  183  A    between atoms: _445  and  _446
REMARK  184  A    between atoms: _445  and  _448
REMARK  185  A    between atoms: _448  and  _449
REMARK  186  A    between atoms: _459  and  _461
REMARK  187  A    between atoms: _461  and  _462
REMARK  188  A    between atoms: _465  and  _467
REMARK  189  A    between atoms: _467  and  _468
REMARK  190  A    between atoms: _467  and  _470
REMARK  191  A    between atoms: _470  and  _471
REMARK  192  A    between atoms: _476  and  _477
REMARK  193  A    between atoms: _479  and  _481
REMARK  194  A    between atoms: _481  and  _482
REMARK  195  A    between atoms: _481  and  _484
REMARK  196  A    between atoms: _484  and  _485
REMARK  197  A    between atoms: _491  and  _493
REMARK  198  A    between atoms: _493  and  _494
REMARK  199  A    between atoms: _493  and  _496
REMARK  200  A    between atoms: _496  and  _497
REMARK  201  A    between atoms: _500  and  _502
REMARK  202  A    between atoms: _502  and  _503
REMARK  203  A    between atoms: _505  and  _507
REMARK  204  A    between atoms: _507  and  _508
REMARK  205  A    between atoms: _507  and  _510
REMARK  206  A    between atoms: _513  and  _515
REMARK  207  A    between atoms: _515  and  _516
REMARK  208  A    between atoms: _515  and  _518
REMARK  209  A    between atoms: _518  and  _519
REMARK  210  A    between atoms: _519  and  _520
REMARK  211  A    between atoms: _520  and  _521
REMARK  212  A    between atoms: _521  and  _522
REMARK  213  A    between atoms: _526  and  _528
REMARK  214  A    between atoms: _528  and  _529
REMARK  215  A    between atoms: _528  and  _531
REMARK  216  A    between atoms: _531  and  _532
REMARK  217  A    between atoms: _532  and  _533
REMARK  218  A    between atoms: _533  and  _534
REMARK  219  A    between atoms: _543  and  _545
REMARK  220  A    between atoms: _545  and  _546
REMARK  221  A    between atoms: _545  and  _548
REMARK  222  A    between atoms: _548  and  _549
REMARK  223  A    between atoms: _549  and  _550
REMARK  224  A    between atoms: _553  and  _555
REMARK  225  A    between atoms: _555  and  _556
REMARK  226  A    between atoms: _555  and  _558
REMARK  227  A    between atoms: _558  and  _559
REMARK  228  A    between atoms: _559  and  _560
REMARK  229  A    between atoms: _563  and  _564
REMARK  230  A    between atoms: _569  and  _571
REMARK  231  A    between atoms: _571  and  _572
REMARK  232  A    between atoms: _571  and  _574
REMARK  233  A    between atoms: _574  and  _575
REMARK  234  A    between atoms: _575  and  _576
REMARK  235  A    between atoms: _578  and  _580
REMARK  236  A    between atoms: _580  and  _581
REMARK  237  A    between atoms: _583  and  _585
REMARK  238  A    between atoms: _585  and  _586
REMARK  239  A    between atoms: _585  and  _588
REMARK  240  A    between atoms: _591  and  _593
REMARK  241  A    between atoms: _593  and  _594
REMARK  242  A    between atoms: _593  and  _596
REMARK  243  A    between atoms: _596  and  _597
REMARK  244  A    between atoms: _607  and  _609
REMARK  245  A    between atoms: _609  and  _610
REMARK  246  A    between atoms: _609  and  _612
REMARK  247  A    between atoms: _612  and  _613
REMARK  248  A    between atoms: _613  and  _614
REMARK  249  A    between atoms: _618  and  _619
REMARK  250  A    between atoms: _624  and  _626
REMARK  251  A    between atoms: _626  and  _627
REMARK  252  A    between atoms: _626  and  _629
REMARK  253  A    between atoms: _629  and  _630
REMARK  254  A    between atoms: _633  and  _635
REMARK  255  A    between atoms: _635  and  _636
REMARK  256  A    between atoms: _635  and  _638
REMARK  257  A    between atoms: _638  and  _639
REMARK  258  A    between atoms: _644  and  _646
REMARK  259  A    between atoms: _646  and  _647
REMARK  260  A    between atoms: _646  and  _649
REMARK  261  A    between atoms: _649  and  _650
REMARK                            x       y       z     vdW  Elec       q    Type
REMARK                         _______ _______ _______ _____ _____    ______ ____
ROOT
ATOM      1  O   HOH     1      22.235   4.254  14.225  0.00  0.00    +0.000 OA
ENDROOT
TORSDOF 0
REMARK  Name = ../refined-set-2016/2zym/2zym_pocket.pdb
REMARK  261 active torsions:
REMARK  status: ('A' for Active; 'I' for Inactive)
REMARK    1  A    between atoms: _1  and  _3
REMARK    2  A    between atoms: _3  and  _4
REMARK    3  A    between atoms: _3  and  _6
REMARK    4  A    between atoms: _6  and  _7
REMARK    5  A    between atoms: _7  and  _8
REMARK    6  A    between atoms: _11  and  _13
REMARK    7  A    between atoms: _13  and  _14
REMARK    8  A    between atoms: _13  and  _16
REMARK    9  A    between atoms: _16  and  _17
REMARK   10  A    between atoms: _22  and  _24
REMARK   11  A    between atoms: _24  and  _25
REMARK   12  A    between atoms: _28  and  _30
REMARK   13  A    between atoms: _30  and  _31
REMARK   14  A    between atoms: _30  and  _33
REMARK   15  A    between atoms: _33  and  _34
REMARK   16  A    between atoms: _37  and  _39
REMARK   17  A    between atoms: _39  and  _40
REMARK   18  A    between atoms: _39  and  _42
REMARK   19  A    between atoms: _42  and  _43
REMARK   20  A    between atoms: _43  and  _44
REMARK   21  A    between atoms: _49  and  _51
REMARK   22  A    between atoms: _51  and  _52
REMARK   23  A    between atoms: _51  and  _54
REMARK   24  A    between atoms: _57  and  _59
REMARK   25  A    between atoms: _59  and  _60
REMARK   26  A    between atoms: _63  and  _65
REMARK   27  A    between atoms: _65  and  _66
REMARK   28  A    between atoms: _65  and  _68
REMARK   29  A    between atoms: _68  and  _69
REMARK   30  A    between atoms: _72  and  _74
REMARK   31  A    between atoms: _74  and  _75
REMARK   32  A    between atoms: _74  and  _77
REMARK   33  A    between atoms: _77  and  _78
REMARK   34  A    between atoms: _81  and  _83
REMARK   35  A    between atoms: _83  and  _84
REMARK   36  A    between atoms: _83  and  _86
REMARK   37  A    between atoms: _86  and  _87
REMARK   38  A    between atoms: _87  and  _88
REMARK   39  A    between atoms: _88  and  _89
REMARK   40  A    between atoms: _89  and  _90
REMARK   41  A    between atoms: _94  and  _96
REMARK   42  A    between atoms: _96  and  _97
REMARK   43  A    between atoms: _96  and  _99
REMARK   44  A    between atoms: _99  and  _100
REMARK   45  A    between atoms: _100  and  _101
REMARK   46  A    between atoms: _106  and  _108
REMARK   47  A    between atoms: _108  and  _109
REMARK   48  A    between atoms: _108  and  _111
REMARK   49  A    between atoms: _111  and  _112
REMARK   50  A    between atoms: _112  and  _113
REMARK   51  A    between atoms: _118  and  _120
REMARK   52  A    between atoms: _120  and  _121
REMARK   53  A    between atoms: _120  and  _123
REMARK   54  A    between atoms: _123  and  _124
REMARK   55  A    between atoms: _124  and  _125
REMARK   56  A    between atoms: _128  and  _130
REMARK   57  A    between atoms: _130  and  _131
REMARK   58  A    between atoms: _130  and  _133
REMARK   59  A    between atoms: _133  and  _134
REMARK   60  A    between atoms: _134  and  _135
REMARK   61  A    between atoms: _135  and  _136
REMARK   62  A    between atoms: _136  and  _137
REMARK   63  A    between atoms: _141  and  _143
REMARK   64  A    between atoms: _143  and  _144
REMARK   65  A    between atoms: _143  and  _146
REMARK   66  A    between atoms: _146  and  _147
REMARK   67  A    between atoms: _150  and  _152
REMARK   68  A    between atoms: _152  and  _153
REMARK   69  A    between atoms: _152  and  _155
REMARK   70  A    between atoms: _155  and  _156
REMARK   71  A    between atoms: _167  and  _168
REMARK   72  A    between atoms: _173  and  _175
REMARK   73  A    between atoms: _175  and  _176
REMARK   74  A    between atoms: _175  and  _178
REMARK   75  A    between atoms: _178  and  _179
REMARK   76  A    between atoms: _184  and  _186
REMARK   77  A    between atoms: _186  and  _187
REMARK   78  A    between atoms: _186  and  _189
REMARK   79  A    between atoms: _189  and  _190
REMARK   80  A    between atoms: _193  and  _195
REMARK   81  A    between atoms: _195  and  _196
REMARK   82  A    between atoms: _195  and  _198
REMARK   83  A    between atoms: _198  and  _199
REMARK   84  A    between atoms: _199  and  _200
REMARK   85  A    between atoms: _200  and  _201
REMARK   86  A    between atoms: _210  and  _212
REMARK   87  A    between atoms: _212  and  _213
REMARK   88  A    between atoms: _212  and  _215
REMARK   89  A    between atoms: _215  and  _216
REMARK   90  A    between atoms: _219  and  _221
REMARK   91  A    between atoms: _221  and  _222
REMARK   92  A    between atoms: _221  and  _224
REMARK   93  A    between atoms: _224  and  _225
REMARK   94  A    between atoms: _225  and  _226
REMARK   95  A    between atoms: _229  and  _231
REMARK   96  A    between atoms: _231  and  _232
REMARK   97  A    between atoms: _231  and  _234
REMARK   98  A    between atoms: _234  and  _235
REMARK   99  A    between atoms: _235  and  _236
REMARK  100  A    between atoms: _236  and  _237
REMARK  101  A    between atoms: _237  and  _238
REMARK  102  A    between atoms: _242  and  _244
REMARK  103  A    between atoms: _244  and  _245
REMARK  104  A    between atoms: _248  and  _250
REMARK  105  A    between atoms: _250  and  _251
REMARK  106  A    between atoms: _250  and  _253
REMARK  107  A    between atoms: _253  and  _254
REMARK  108  A    between atoms: _254  and  _255
REMARK  109  A    between atoms: _258  and  _260
REMARK  110  A    between atoms: _260  and  _261
REMARK  111  A    between atoms: _260  and  _263
REMARK  112  A    between atoms: _263  and  _264
REMARK  113  A    between atoms: _266  and  _268
REMARK  114  A    between atoms: _268  and  _269
REMARK  115  A    between atoms: _268  and  _271
REMARK  116  A    between atoms: _274  and  _276
REMARK  117  A    between atoms: _276  and  _277
REMARK  118  A    between atoms: _276  and  _279
REMARK  119  A    between atoms: _279  and  _280
REMARK  120  A    between atoms: _280  and  _281
REMARK  121  A    between atoms: _284  and  _286
REMARK  122  A    between atoms: _286  and  _287
REMARK  123  A    between atoms: _286  and  _289
REMARK  124  A    between atoms: _289  and  _290
REMARK  125  A    between atoms: _295  and  _297
REMARK  126  A    between atoms: _297  and  _298
REMARK  127  A    between atoms: _297  and  _300
REMARK  128  A    between atoms: _300  and  _301
REMARK  129  A    between atoms: _306  and  _308
REMARK  130  A    between atoms: _308  and  _309
REMARK  131  A    between atoms: _308  and  _311
REMARK  132  A    between atoms: _311  and  _312
REMARK  133  A    between atoms: _318  and  _320
REMARK  134  A    between atoms: _320  and  _321
REMARK  135  A    between atoms: _320  and  _323
REMARK  136  A    between atoms: _323  and  _324
REMARK  137  A    between atoms: _329  and  _330
REMARK  138  A    between atoms: _332  and  _334
REMARK  139  A    between atoms: _334  and  _335
REMARK  140  A    between atoms: _334  and  _337
REMARK  141  A    between atoms: _337  and  _338
REMARK  142  A    between atoms: _343  and  _344
REMARK  143  A    between atoms: _346  and  _348
REMARK  144  A    between atoms: _348  and  _349
REMARK  145  A    between atoms: _348  and  _351
REMARK  146  A    between atoms: _351  and  _352
REMARK  147  A    between atoms: _355  and  _357
REMARK  148  A    between atoms: _357  and  _358
REMARK  149  A    between atoms: _357  and  _360
REMARK  150  A    between atoms: _360  and  _361
REMARK  151  A    between atoms: _364  and  _366
REMARK  152  A    between atoms: _366  and  _367
REMARK  153  A    between atoms: _366  and  _369
REMARK  154  A    between atoms: _369  and  _370
REMARK  155  A    between atoms: _370  and  _371
REMARK  156  A    between atoms: _371  and  _372
REMARK  157  A    between atoms: _372  and  _373
REMARK  158  A    between atoms: _377  and  _379
REMARK  159  A    between atoms: _379  and  _380
REMARK  160  A    between atoms: _383  and  _385
REMARK  161  A    between atoms: _385  and  _386
REMARK  162  A    between atoms: _385  and  _388
REMARK  163  A    between atoms: _388  and  _389
REMARK  164  A    between atoms: _392  and  _394
REMARK  165  A    between atoms: _394  and  _395
REMARK  166  A    between atoms: _394  and  _397
REMARK  167  A    between atoms: _397  and  _398
REMARK  168  A    between atoms: _401  and  _403
REMARK  169  A    between atoms: _403  and  _404
REMARK  170  A    between atoms: _403  and  _406
REMARK  171  A    between atoms: _409  and  _411
REMARK  172  A    between atoms: _411  and  _412
REMARK  173  A    between atoms: _411  and  _414
REMARK  174  A    between atoms: _414  and  _415
REMARK  175  A    between atoms: _420  and  _422
REMARK  176  A    between atoms: _422  and  _423
REMARK  177  A    between atoms: _422  and  _425
REMARK  178  A    between atoms: _425  and  _426
REMARK  179  A    between atoms: _431  and  _433
REMARK  180  A    between atoms: _433  and  _434
REMARK  181  A    between atoms: _437  and  _438
REMARK  182  A    between atoms: _443  and  _445
REMARK  183  A    between atoms: _445  and  _446
REMARK  184  A    between atoms: _445  and  _448
REMARK  185  A    between atoms: _448  and  _449
REMARK  186  A    between atoms: _459  and  _461
REMARK  187  A    between atoms: _461  and  _462
REMARK  188  A    between atoms: _465  and  _467
REMARK  189  A    between atoms: _467  and  _468
REMARK  190  A    between atoms: _467  and  _470
REMARK  191  A    between atoms: _470  and  _471
REMARK  192  A    between atoms: _476  and  _477
REMARK  193  A    between atoms: _479  and  _481
REMARK  194  A    between atoms: _481  and  _482
REMARK  195  A    between atoms: _481  and  _484
REMARK  196  A    between atoms: _484  and  _485
REMARK  197  A    between atoms: _491  and  _493
REMARK  198  A    between atoms: _493  and  _494
REMARK  199  A    between atoms: _493  and  _496
REMARK  200  A    between atoms: _496  and  _497
REMARK  201  A    between atoms: _500  and  _502
REMARK  202  A    between atoms: _502  and  _503
REMARK  203  A    between atoms: _505  and  _507
REMARK  204  A    between atoms: _507  and  _508
REMARK  205  A    between atoms: _507  and  _510
REMARK  206  A    between atoms: _513  and  _515
REMARK  207  A    between atoms: _515  and  _516
REMARK  208  A    between atoms: _515  and  _518
REMARK  209  A    between atoms: _518  and  _519
REMARK  210  A    between atoms: _519  and  _520
REMARK  211  A    between atoms: _520  and  _521
REMARK  212  A    between atoms: _521  and  _522
REMARK  213  A    between atoms: _526  and  _528
REMARK  214  A    between atoms: _528  and  _529
REMARK  215  A    between atoms: _528  and  _531
REMARK  216  A    between atoms: _531  and  _532
REMARK  217  A    between atoms: _532  and  _533
REMARK  218  A    between atoms: _533  and  _534
REMARK  219  A    between atoms: _543  and  _545
REMARK  220  A    between atoms: _545  and  _546
REMARK  221  A    between atoms: _545  and  _548
REMARK  222  A    between atoms: _548  and  _549
REMARK  223  A    between atoms: _549  and  _550
REMARK  224  A    between atoms: _553  and  _555
REMARK  225  A    between atoms: _555  and  _556
REMARK  226  A    between atoms: _555  and  _558
REMARK  227  A    between atoms: _558  and  _559
REMARK  228  A    between atoms: _559  and  _560
REMARK  229  A    between atoms: _563  and  _564
REMARK  230  A    between atoms: _569  and  _571
REMARK  231  A    between atoms: _571  and  _572
REMARK  232  A    between atoms: _571  and  _574
REMARK  233  A    between atoms: _574  and  _575
REMARK  234  A    between atoms: _575  and  _576
REMARK  235  A    between atoms: _578  and  _580
REMARK  236  A    between atoms: _580  and  _581
REMARK  237  A    between atoms: _583  and  _585
REMARK  238  A    between atoms: _585  and  _586
REMARK  239  A    between atoms: _585  and  _588
REMARK  240  A    between atoms: _591  and  _593
REMARK  241  A    between atoms: _593  and  _594
REMARK  242  A    between atoms: _593  and  _596
REMARK  243  A    between atoms: _596  and  _597
REMARK  244  A    between atoms: _607  and  _609
REMARK  245  A    between atoms: _609  and  _610
REMARK  246  A    between atoms: _609  and  _612
REMARK  247  A    between atoms: _612  and  _613
REMARK  248  A    between atoms: _613  and  _614
REMARK  249  A    between atoms: _618  and  _619
REMARK  250  A    between atoms: _624  and  _626
REMARK  251  A    between atoms: _626  and  _627
REMARK  252  A    between atoms: _626  and  _629
REMARK  253  A    between atoms: _629  and  _630
REMARK  254  A    between atoms: _633  and  _635
REMARK  255  A    between atoms: _635  and  _636
REMARK  256  A    between atoms: _635  and  _638
REMARK  257  A    between atoms: _638  and  _639
REMARK  258  A    between atoms: _644  and  _646
REMARK  259  A    between atoms: _646  and  _647
REMARK  260  A    between atoms: _646  and  _649
REMARK  261  A    between atoms: _649  and  _650
REMARK                            x       y       z     vdW  Elec       q    Type
REMARK                         _______ _______ _______ _____ _____    ______ ____
ROOT
ATOM      1  O   HOH     1      17.784   9.714  21.191  0.00  0.00    +0.000 OA
ENDROOT
TORSDOF 0
REMARK  Name = ../refined-set-2016/2zym/2zym_pocket.pdb
REMARK  261 active torsions:
REMARK  status: ('A' for Active; 'I' for Inactive)
REMARK    1  A    between atoms: _1  and  _3
REMARK    2  A    between atoms: _3  and  _4
REMARK    3  A    between atoms: _3  and  _6
REMARK    4  A    between atoms: _6  and  _7
REMARK    5  A    between atoms: _7  and  _8
REMARK    6  A    between atoms: _11  and  _13
REMARK    7  A    between atoms: _13  and  _14
REMARK    8  A    between atoms: _13  and  _16
REMARK    9  A    between atoms: _16  and  _17
REMARK   10  A    between atoms: _22  and  _24
REMARK   11  A    between atoms: _24  and  _25
REMARK   12  A    between atoms: _28  and  _30
REMARK   13  A    between atoms: _30  and  _31
REMARK   14  A    between atoms: _30  and  _33
REMARK   15  A    between atoms: _33  and  _34
REMARK   16  A    between atoms: _37  and  _39
REMARK   17  A    between atoms: _39  and  _40
REMARK   18  A    between atoms: _39  and  _42
REMARK   19  A    between atoms: _42  and  _43
REMARK   20  A    between atoms: _43  and  _44
REMARK   21  A    between atoms: _49  and  _51
REMARK   22  A    between atoms: _51  and  _52
REMARK   23  A    between atoms: _51  and  _54
REMARK   24  A    between atoms: _57  and  _59
REMARK   25  A    between atoms: _59  and  _60
REMARK   26  A    between atoms: _63  and  _65
REMARK   27  A    between atoms: _65  and  _66
REMARK   28  A    between atoms: _65  and  _68
REMARK   29  A    between atoms: _68  and  _69
REMARK   30  A    between atoms: _72  and  _74
REMARK   31  A    between atoms: _74  and  _75
REMARK   32  A    between atoms: _74  and  _77
REMARK   33  A    between atoms: _77  and  _78
REMARK   34  A    between atoms: _81  and  _83
REMARK   35  A    between atoms: _83  and  _84
REMARK   36  A    between atoms: _83  and  _86
REMARK   37  A    between atoms: _86  and  _87
REMARK   38  A    between atoms: _87  and  _88
REMARK   39  A    between atoms: _88  and  _89
REMARK   40  A    between atoms: _89  and  _90
REMARK   41  A    between atoms: _94  and  _96
REMARK   42  A    between atoms: _96  and  _97
REMARK   43  A    between atoms: _96  and  _99
REMARK   44  A    between atoms: _99  and  _100
REMARK   45  A    between atoms: _100  and  _101
REMARK   46  A    between atoms: _106  and  _108
REMARK   47  A    between atoms: _108  and  _109
REMARK   48  A    between atoms: _108  and  _111
REMARK   49  A    between atoms: _111  and  _112
REMARK   50  A    between atoms: _112  and  _113
REMARK   51  A    between atoms: _118  and  _120
REMARK   52  A    between atoms: _120  and  _121
REMARK   53  A    between atoms: _120  and  _123
REMARK   54  A    between atoms: _123  and  _124
REMARK   55  A    between atoms: _124  and  _125
REMARK   56  A    between atoms: _128  and  _130
REMARK   57  A    between atoms: _130  and  _131
REMARK   58  A    between atoms: _130  and  _133
REMARK   59  A    between atoms: _133  and  _134
REMARK   60  A    between atoms: _134  and  _135
REMARK   61  A    between atoms: _135  and  _136
REMARK   62  A    between atoms: _136  and  _137
REMARK   63  A    between atoms: _141  and  _143
REMARK   64  A    between atoms: _143  and  _144
REMARK   65  A    between atoms: _143  and  _146
REMARK   66  A    between atoms: _146  and  _147
REMARK   67  A    between atoms: _150  and  _152
REMARK   68  A    between atoms: _152  and  _153
REMARK   69  A    between atoms: _152  and  _155
REMARK   70  A    between atoms: _155  and  _156
REMARK   71  A    between atoms: _167  and  _168
REMARK   72  A    between atoms: _173  and  _175
REMARK   73  A    between atoms: _175  and  _176
REMARK   74  A    between atoms: _175  and  _178
REMARK   75  A    between atoms: _178  and  _179
REMARK   76  A    between atoms: _184  and  _186
REMARK   77  A    between atoms: _186  and  _187
REMARK   78  A    between atoms: _186  and  _189
REMARK   79  A    between atoms: _189  and  _190
REMARK   80  A    between atoms: _193  and  _195
REMARK   81  A    between atoms: _195  and  _196
REMARK   82  A    between atoms: _195  and  _198
REMARK   83  A    between atoms: _198  and  _199
REMARK   84  A    between atoms: _199  and  _200
REMARK   85  A    between atoms: _200  and  _201
REMARK   86  A    between atoms: _210  and  _212
REMARK   87  A    between atoms: _212  and  _213
REMARK   88  A    between atoms: _212  and  _215
REMARK   89  A    between atoms: _215  and  _216
REMARK   90  A    between atoms: _219  and  _221
REMARK   91  A    between atoms: _221  and  _222
REMARK   92  A    between atoms: _221  and  _224
REMARK   93  A    between atoms: _224  and  _225
REMARK   94  A    between atoms: _225  and  _226
REMARK   95  A    between atoms: _229  and  _231
REMARK   96  A    between atoms: _231  and  _232
REMARK   97  A    between atoms: _231  and  _234
REMARK   98  A    between atoms: _234  and  _235
REMARK   99  A    between atoms: _235  and  _236
REMARK  100  A    between atoms: _236  and  _237
REMARK  101  A    between atoms: _237  and  _238
REMARK  102  A    between atoms: _242  and  _244
REMARK  103  A    between atoms: _244  and  _245
REMARK  104  A    between atoms: _248  and  _250
REMARK  105  A    between atoms: _250  and  _251
REMARK  106  A    between atoms: _250  and  _253
REMARK  107  A    between atoms: _253  and  _254
REMARK  108  A    between atoms: _254  and  _255
REMARK  109  A    between atoms: _258  and  _260
REMARK  110  A    between atoms: _260  and  _261
REMARK  111  A    between atoms: _260  and  _263
REMARK  112  A    between atoms: _263  and  _264
REMARK  113  A    between atoms: _266  and  _268
REMARK  114  A    between atoms: _268  and  _269
REMARK  115  A    between atoms: _268  and  _271
REMARK  116  A    between atoms: _274  and  _276
REMARK  117  A    between atoms: _276  and  _277
REMARK  118  A    between atoms: _276  and  _279
REMARK  119  A    between atoms: _279  and  _280
REMARK  120  A    between atoms: _280  and  _281
REMARK  121  A    between atoms: _284  and  _286
REMARK  122  A    between atoms: _286  and  _287
REMARK  123  A    between atoms: _286  and  _289
REMARK  124  A    between atoms: _289  and  _290
REMARK  125  A    between atoms: _295  and  _297
REMARK  126  A    between atoms: _297  and  _298
REMARK  127  A    between atoms: _297  and  _300
REMARK  128  A    between atoms: _300  and  _301
REMARK  129  A    between atoms: _306  and  _308
REMARK  130  A    between atoms: _308  and  _309
REMARK  131  A    between atoms: _308  and  _311
REMARK  132  A    between atoms: _311  and  _312
REMARK  133  A    between atoms: _318  and  _320
REMARK  134  A    between atoms: _320  and  _321
REMARK  135  A    between atoms: _320  and  _323
REMARK  136  A    between atoms: _323  and  _324
REMARK  137  A    between atoms: _329  and  _330
REMARK  138  A    between atoms: _332  and  _334
REMARK  139  A    between atoms: _334  and  _335
REMARK  140  A    between atoms: _334  and  _337
REMARK  141  A    between atoms: _337  and  _338
REMARK  142  A    between atoms: _343  and  _344
REMARK  143  A    between atoms: _346  and  _348
REMARK  144  A    between atoms: _348  and  _349
REMARK  145  A    between atoms: _348  and  _351
REMARK  146  A    between atoms: _351  and  _352
REMARK  147  A    between atoms: _355  and  _357
REMARK  148  A    between atoms: _357  and  _358
REMARK  149  A    between atoms: _357  and  _360
REMARK  150  A    between atoms: _360  and  _361
REMARK  151  A    between atoms: _364  and  _366
REMARK  152  A    between atoms: _366  and  _367
REMARK  153  A    between atoms: _366  and  _369
REMARK  154  A    between atoms: _369  and  _370
REMARK  155  A    between atoms: _370  and  _371
REMARK  156  A    between atoms: _371  and  _372
REMARK  157  A    between atoms: _372  and  _373
REMARK  158  A    between atoms: _377  and  _379
REMARK  159  A    between atoms: _379  and  _380
REMARK  160  A    between atoms: _383  and  _385
REMARK  161  A    between atoms: _385  and  _386
REMARK  162  A    between atoms: _385  and  _388
REMARK  163  A    between atoms: _388  and  _389
REMARK  164  A    between atoms: _392  and  _394
REMARK  165  A    between atoms: _394  and  _395
REMARK  166  A    between atoms: _394  and  _397
REMARK  167  A    between atoms: _397  and  _398
REMARK  168  A    between atoms: _401  and  _403
REMARK  169  A    between atoms: _403  and  _404
REMARK  170  A    between atoms: _403  and  _406
REMARK  171  A    between atoms: _409  and  _411
REMARK  172  A    between atoms: _411  and  _412
REMARK  173  A    between atoms: _411  and  _414
REMARK  174  A    between atoms: _414  and  _415
REMARK  175  A    between atoms: _420  and  _422
REMARK  176  A    between atoms: _422  and  _423
REMARK  177  A    between atoms: _422  and  _425
REMARK  178  A    between atoms: _425  and  _426
REMARK  179  A    between atoms: _431  and  _433
REMARK  180  A    between atoms: _433  and  _434
REMARK  181  A    between atoms: _437  and  _438
REMARK  182  A    between atoms: _443  and  _445
REMARK  183  A    between atoms: _445  and  _446
REMARK  184  A    between atoms: _445  and  _448
REMARK  185  A    between atoms: _448  and  _449
REMARK  186  A    between atoms: _459  and  _461
REMARK  187  A    between atoms: _461  and  _462
REMARK  188  A    between atoms: _465  and  _467
REMARK  189  A    between atoms: _467  and  _468
REMARK  190  A    between atoms: _467  and  _470
REMARK  191  A    between atoms: _470  and  _471
REMARK  192  A    between atoms: _476  and  _477
REMARK  193  A    between atoms: _479  and  _481
REMARK  194  A    between atoms: _481  and  _482
REMARK  195  A    between atoms: _481  and  _484
REMARK  196  A    between atoms: _484  and  _485
REMARK  197  A    between atoms: _491  and  _493
REMARK  198  A    between atoms: _493  and  _494
REMARK  199  A    between atoms: _493  and  _496
REMARK  200  A    between atoms: _496  and  _497
REMARK  201  A    between atoms: _500  and  _502
REMARK  202  A    between atoms: _502  and  _503
REMARK  203  A    between atoms: _505  and  _507
REMARK  204  A    between atoms: _507  and  _508
REMARK  205  A    between atoms: _507  and  _510
REMARK  206  A    between atoms: _513  and  _515
REMARK  207  A    between atoms: _515  and  _516
REMARK  208  A    between atoms: _515  and  _518
REMARK  209  A    between atoms: _518  and  _519
REMARK  210  A    between atoms: _519  and  _520
REMARK  211  A    between atoms: _520  and  _521
REMARK  212  A    between atoms: _521  and  _522
REMARK  213  A    between atoms: _526  and  _528
REMARK  214  A    between atoms: _528  and  _529
REMARK  215  A    between atoms: _528  and  _531
REMARK  216  A    between atoms: _531  and  _532
REMARK  217  A    between atoms: _532  and  _533
REMARK  218  A    between atoms: _533  and  _534
REMARK  219  A    between atoms: _543  and  _545
REMARK  220  A    between atoms: _545  and  _546
REMARK  221  A    between atoms: _545  and  _548
REMARK  222  A    between atoms: _548  and  _549
REMARK  223  A    between atoms: _549  and  _550
REMARK  224  A    between atoms: _553  and  _555
REMARK  225  A    between atoms: _555  and  _556
REMARK  226  A    between atoms: _555  and  _558
REMARK  227  A    between atoms: _558  and  _559
REMARK  228  A    between atoms: _559  and  _560
REMARK  229  A    between atoms: _563  and  _564
REMARK  230  A    between atoms: _569  and  _571
REMARK  231  A    between atoms: _571  and  _572
REMARK  232  A    between atoms: _571  and  _574
REMARK  233  A    between atoms: _574  and  _575
REMARK  234  A    between atoms: _575  and  _576
REMARK  235  A    between atoms: _578  and  _580
REMARK  236  A    between atoms: _580  and  _581
REMARK  237  A    between atoms: _583  and  _585
REMARK  238  A    between atoms: _585  and  _586
REMARK  239  A    between atoms: _585  and  _588
REMARK  240  A    between atoms: _591  and  _593
REMARK  241  A    between atoms: _593  and  _594
REMARK  242  A    between atoms: _593  and  _596
REMARK  243  A    between atoms: _596  and  _597
REMARK  244  A    between atoms: _607  and  _609
REMARK  245  A    between atoms: _609  and  _610
REMARK  246  A    between atoms: _609  and  _612
REMARK  247  A    between atoms: _612  and  _613
REMARK  248  A    between atoms: _613  and  _614
REMARK  249  A    between atoms: _618  and  _619
REMARK  250  A    between atoms: _624  and  _626
REMARK  251  A    between atoms: _626  and  _627
REMARK  252  A    between atoms: _626  and  _629
REMARK  253  A    between atoms: _629  and  _630
REMARK  254  A    between atoms: _633  and  _635
REMARK  255  A    between atoms: _635  and  _636
REMARK  256  A    between atoms: _635  and  _638
REMARK  257  A    between atoms: _638  and  _639
REMARK  258  A    between atoms: _644  and  _646
REMARK  259  A    between atoms: _646  and  _647
REMARK  260  A    between atoms: _646  and  _649
REMARK  261  A    between atoms: _649  and  _650
REMARK                            x       y       z     vdW  Elec       q    Type
REMARK                         _______ _______ _______ _____ _____    ______ ____
ROOT
ATOM      1  O   HOH     1      14.897  -1.687  18.982  0.00  0.00    +0.000 OA
ENDROOT
TORSDOF 0
REMARK  Name = ../refined-set-2016/2zym/2zym_pocket.pdb
REMARK  261 active torsions:
REMARK  status: ('A' for Active; 'I' for Inactive)
REMARK    1  A    between atoms: _1  and  _3
REMARK    2  A    between atoms: _3  and  _4
REMARK    3  A    between atoms: _3  and  _6
REMARK    4  A    between atoms: _6  and  _7
REMARK    5  A    between atoms: _7  and  _8
REMARK    6  A    between atoms: _11  and  _13
REMARK    7  A    between atoms: _13  and  _14
REMARK    8  A    between atoms: _13  and  _16
REMARK    9  A    between atoms: _16  and  _17
REMARK   10  A    between atoms: _22  and  _24
REMARK   11  A    between atoms: _24  and  _25
REMARK   12  A    between atoms: _28  and  _30
REMARK   13  A    between atoms: _30  and  _31
REMARK   14  A    between atoms: _30  and  _33
REMARK   15  A    between atoms: _33  and  _34
REMARK   16  A    between atoms: _37  and  _39
REMARK   17  A    between atoms: _39  and  _40
REMARK   18  A    between atoms: _39  and  _42
REMARK   19  A    between atoms: _42  and  _43
REMARK   20  A    between atoms: _43  and  _44
REMARK   21  A    between atoms: _49  and  _51
REMARK   22  A    between atoms: _51  and  _52
REMARK   23  A    between atoms: _51  and  _54
REMARK   24  A    between atoms: _57  and  _59
REMARK   25  A    between atoms: _59  and  _60
REMARK   26  A    between atoms: _63  and  _65
REMARK   27  A    between atoms: _65  and  _66
REMARK   28  A    between atoms: _65  and  _68
REMARK   29  A    between atoms: _68  and  _69
REMARK   30  A    between atoms: _72  and  _74
REMARK   31  A    between atoms: _74  and  _75
REMARK   32  A    between atoms: _74  and  _77
REMARK   33  A    between atoms: _77  and  _78
REMARK   34  A    between atoms: _81  and  _83
REMARK   35  A    between atoms: _83  and  _84
REMARK   36  A    between atoms: _83  and  _86
REMARK   37  A    between atoms: _86  and  _87
REMARK   38  A    between atoms: _87  and  _88
REMARK   39  A    between atoms: _88  and  _89
REMARK   40  A    between atoms: _89  and  _90
REMARK   41  A    between atoms: _94  and  _96
REMARK   42  A    between atoms: _96  and  _97
REMARK   43  A    between atoms: _96  and  _99
REMARK   44  A    between atoms: _99  and  _100
REMARK   45  A    between atoms: _100  and  _101
REMARK   46  A    between atoms: _106  and  _108
REMARK   47  A    between atoms: _108  and  _109
REMARK   48  A    between atoms: _108  and  _111
REMARK   49  A    between atoms: _111  and  _112
REMARK   50  A    between atoms: _112  and  _113
REMARK   51  A    between atoms: _118  and  _120
REMARK   52  A    between atoms: _120  and  _121
REMARK   53  A    between atoms: _120  and  _123
REMARK   54  A    between atoms: _123  and  _124
REMARK   55  A    between atoms: _124  and  _125
REMARK   56  A    between atoms: _128  and  _130
REMARK   57  A    between atoms: _130  and  _131
REMARK   58  A    between atoms: _130  and  _133
REMARK   59  A    between atoms: _133  and  _134
REMARK   60  A    between atoms: _134  and  _135
REMARK   61  A    between atoms: _135  and  _136
REMARK   62  A    between atoms: _136  and  _137
REMARK   63  A    between atoms: _141  and  _143
REMARK   64  A    between atoms: _143  and  _144
REMARK   65  A    between atoms: _143  and  _146
REMARK   66  A    between atoms: _146  and  _147
REMARK   67  A    between atoms: _150  and  _152
REMARK   68  A    between atoms: _152  and  _153
REMARK   69  A    between atoms: _152  and  _155
REMARK   70  A    between atoms: _155  and  _156
REMARK   71  A    between atoms: _167  and  _168
REMARK   72  A    between atoms: _173  and  _175
REMARK   73  A    between atoms: _175  and  _176
REMARK   74  A    between atoms: _175  and  _178
REMARK   75  A    between atoms: _178  and  _179
REMARK   76  A    between atoms: _184  and  _186
REMARK   77  A    between atoms: _186  and  _187
REMARK   78  A    between atoms: _186  and  _189
REMARK   79  A    between atoms: _189  and  _190
REMARK   80  A    between atoms: _193  and  _195
REMARK   81  A    between atoms: _195  and  _196
REMARK   82  A    between atoms: _195  and  _198
REMARK   83  A    between atoms: _198  and  _199
REMARK   84  A    between atoms: _199  and  _200
REMARK   85  A    between atoms: _200  and  _201
REMARK   86  A    between atoms: _210  and  _212
REMARK   87  A    between atoms: _212  and  _213
REMARK   88  A    between atoms: _212  and  _215
REMARK   89  A    between atoms: _215  and  _216
REMARK   90  A    between atoms: _219  and  _221
REMARK   91  A    between atoms: _221  and  _222
REMARK   92  A    between atoms: _221  and  _224
REMARK   93  A    between atoms: _224  and  _225
REMARK   94  A    between atoms: _225  and  _226
REMARK   95  A    between atoms: _229  and  _231
REMARK   96  A    between atoms: _231  and  _232
REMARK   97  A    between atoms: _231  and  _234
REMARK   98  A    between atoms: _234  and  _235
REMARK   99  A    between atoms: _235  and  _236
REMARK  100  A    between atoms: _236  and  _237
REMARK  101  A    between atoms: _237  and  _238
REMARK  102  A    between atoms: _242  and  _244
REMARK  103  A    between atoms: _244  and  _245
REMARK  104  A    between atoms: _248  and  _250
REMARK  105  A    between atoms: _250  and  _251
REMARK  106  A    between atoms: _250  and  _253
REMARK  107  A    between atoms: _253  and  _254
REMARK  108  A    between atoms: _254  and  _255
REMARK  109  A    between atoms: _258  and  _260
REMARK  110  A    between atoms: _260  and  _261
REMARK  111  A    between atoms: _260  and  _263
REMARK  112  A    between atoms: _263  and  _264
REMARK  113  A    between atoms: _266  and  _268
REMARK  114  A    between atoms: _268  and  _269
REMARK  115  A    between atoms: _268  and  _271
REMARK  116  A    between atoms: _274  and  _276
REMARK  117  A    between atoms: _276  and  _277
REMARK  118  A    between atoms: _276  and  _279
REMARK  119  A    between atoms: _279  and  _280
REMARK  120  A    between atoms: _280  and  _281
REMARK  121  A    between atoms: _284  and  _286
REMARK  122  A    between atoms: _286  and  _287
REMARK  123  A    between atoms: _286  and  _289
REMARK  124  A    between atoms: _289  and  _290
REMARK  125  A    between atoms: _295  and  _297
REMARK  126  A    between atoms: _297  and  _298
REMARK  127  A    between atoms: _297  and  _300
REMARK  128  A    between atoms: _300  and  _301
REMARK  129  A    between atoms: _306  and  _308
REMARK  130  A    between atoms: _308  and  _309
REMARK  131  A    between atoms: _308  and  _311
REMARK  132  A    between atoms: _311  and  _312
REMARK  133  A    between atoms: _318  and  _320
REMARK  134  A    between atoms: _320  and  _321
REMARK  135  A    between atoms: _320  and  _323
REMARK  136  A    between atoms: _323  and  _324
REMARK  137  A    between atoms: _329  and  _330
REMARK  138  A    between atoms: _332  and  _334
REMARK  139  A    between atoms: _334  and  _335
REMARK  140  A    between atoms: _334  and  _337
REMARK  141  A    between atoms: _337  and  _338
REMARK  142  A    between atoms: _343  and  _344
REMARK  143  A    between atoms: _346  and  _348
REMARK  144  A    between atoms: _348  and  _349
REMARK  145  A    between atoms: _348  and  _351
REMARK  146  A    between atoms: _351  and  _352
REMARK  147  A    between atoms: _355  and  _357
REMARK  148  A    between atoms: _357  and  _358
REMARK  149  A    between atoms: _357  and  _360
REMARK  150  A    between atoms: _360  and  _361
REMARK  151  A    between atoms: _364  and  _366
REMARK  152  A    between atoms: _366  and  _367
REMARK  153  A    between atoms: _366  and  _369
REMARK  154  A    between atoms: _369  and  _370
REMARK  155  A    between atoms: _370  and  _371
REMARK  156  A    between atoms: _371  and  _372
REMARK  157  A    between atoms: _372  and  _373
REMARK  158  A    between atoms: _377  and  _379
REMARK  159  A    between atoms: _379  and  _380
REMARK  160  A    between atoms: _383  and  _385
REMARK  161  A    between atoms: _385  and  _386
REMARK  162  A    between atoms: _385  and  _388
REMARK  163  A    between atoms: _388  and  _389
REMARK  164  A    between atoms: _392  and  _394
REMARK  165  A    between atoms: _394  and  _395
REMARK  166  A    between atoms: _394  and  _397
REMARK  167  A    between atoms: _397  and  _398
REMARK  168  A    between atoms: _401  and  _403
REMARK  169  A    between atoms: _403  and  _404
REMARK  170  A    between atoms: _403  and  _406
REMARK  171  A    between atoms: _409  and  _411
REMARK  172  A    between atoms: _411  and  _412
REMARK  173  A    between atoms: _411  and  _414
REMARK  174  A    between atoms: _414  and  _415
REMARK  175  A    between atoms: _420  and  _422
REMARK  176  A    between atoms: _422  and  _423
REMARK  177  A    between atoms: _422  and  _425
REMARK  178  A    between atoms: _425  and  _426
REMARK  179  A    between atoms: _431  and  _433
REMARK  180  A    between atoms: _433  and  _434
REMARK  181  A    between atoms: _437  and  _438
REMARK  182  A    between atoms: _443  and  _445
REMARK  183  A    between atoms: _445  and  _446
REMARK  184  A    between atoms: _445  and  _448
REMARK  185  A    between atoms: _448  and  _449
REMARK  186  A    between atoms: _459  and  _461
REMARK  187  A    between atoms: _461  and  _462
REMARK  188  A    between atoms: _465  and  _467
REMARK  189  A    between atoms: _467  and  _468
REMARK  190  A    between atoms: _467  and  _470
REMARK  191  A    between atoms: _470  and  _471
REMARK  192  A    between atoms: _476  and  _477
REMARK  193  A    between atoms: _479  and  _481
REMARK  194  A    between atoms: _481  and  _482
REMARK  195  A    between atoms: _481  and  _484
REMARK  196  A    between atoms: _484  and  _485
REMARK  197  A    between atoms: _491  and  _493
REMARK  198  A    between atoms: _493  and  _494
REMARK  199  A    between atoms: _493  and  _496
REMARK  200  A    between atoms: _496  and  _497
REMARK  201  A    between atoms: _500  and  _502
REMARK  202  A    between atoms: _502  and  _503
REMARK  203  A    between atoms: _505  and  _507
REMARK  204  A    between atoms: _507  and  _508
REMARK  205  A    between atoms: _507  and  _510
REMARK  206  A    between atoms: _513  and  _515
REMARK  207  A    between atoms: _515  and  _516
REMARK  208  A    between atoms: _515  and  _518
REMARK  209  A    between atoms: _518  and  _519
REMARK  210  A    between atoms: _519  and  _520
REMARK  211  A    between atoms: _520  and  _521
REMARK  212  A    between atoms: _521  and  _522
REMARK  213  A    between atoms: _526  and  _528
REMARK  214  A    between atoms: _528  and  _529
REMARK  215  A    between atoms: _528  and  _531
REMARK  216  A    between atoms: _531  and  _532
REMARK  217  A    between atoms: _532  and  _533
REMARK  218  A    between atoms: _533  and  _534
REMARK  219  A    between atoms: _543  and  _545
REMARK  220  A    between atoms: _545  and  _546
REMARK  221  A    between atoms: _545  and  _548
REMARK  222  A    between atoms: _548  and  _549
REMARK  223  A    between atoms: _549  and  _550
REMARK  224  A    between atoms: _553  and  _555
REMARK  225  A    between atoms: _555  and  _556
REMARK  226  A    between atoms: _555  and  _558
REMARK  227  A    between atoms: _558  and  _559
REMARK  228  A    between atoms: _559  and  _560
REMARK  229  A    between atoms: _563  and  _564
REMARK  230  A    between atoms: _569  and  _571
REMARK  231  A    between atoms: _571  and  _572
REMARK  232  A    between atoms: _571  and  _574
REMARK  233  A    between atoms: _574  and  _575
REMARK  234  A    between atoms: _575  and  _576
REMARK  235  A    between atoms: _578  and  _580
REMARK  236  A    between atoms: _580  and  _581
REMARK  237  A    between atoms: _583  and  _585
REMARK  238  A    between atoms: _585  and  _586
REMARK  239  A    between atoms: _585  and  _588
REMARK  240  A    between atoms: _591  and  _593
REMARK  241  A    between atoms: _593  and  _594
REMARK  242  A    between atoms: _593  and  _596
REMARK  243  A    between atoms: _596  and  _597
REMARK  244  A    between atoms: _607  and  _609
REMARK  245  A    between atoms: _609  and  _610
REMARK  246  A    between atoms: _609  and  _612
REMARK  247  A    between atoms: _612  and  _613
REMARK  248  A    between atoms: _613  and  _614
REMARK  249  A    between atoms: _618  and  _619
REMARK  250  A    between atoms: _624  and  _626
REMARK  251  A    between atoms: _626  and  _627
REMARK  252  A    between atoms: _626  and  _629
REMARK  253  A    between atoms: _629  and  _630
REMARK  254  A    between atoms: _633  and  _635
REMARK  255  A    between atoms: _635  and  _636
REMARK  256  A    between atoms: _635  and  _638
REMARK  257  A    between atoms: _638  and  _639
REMARK  258  A    between atoms: _644  and  _646
REMARK  259  A    between atoms: _646  and  _647
REMARK  260  A    between atoms: _646  and  _649
REMARK  261  A    between atoms: _649  and  _650
REMARK                            x       y       z     vdW  Elec       q    Type
REMARK                         _______ _______ _______ _____ _____    ______ ____
ROOT
ATOM      1  O   HOH     1      18.621  -3.778  12.710  0.00  0.00    +0.000 OA
ENDROOT
TORSDOF 0
REMARK  Name = ../refined-set-2016/2zym/2zym_pocket.pdb
REMARK  261 active torsions:
REMARK  status: ('A' for Active; 'I' for Inactive)
REMARK    1  A    between atoms: _1  and  _3
REMARK    2  A    between atoms: _3  and  _4
REMARK    3  A    between atoms: _3  and  _6
REMARK    4  A    between atoms: _6  and  _7
REMARK    5  A    between atoms: _7  and  _8
REMARK    6  A    between atoms: _11  and  _13
REMARK    7  A    between atoms: _13  and  _14
REMARK    8  A    between atoms: _13  and  _16
REMARK    9  A    between atoms: _16  and  _17
REMARK   10  A    between atoms: _22  and  _24
REMARK   11  A    between atoms: _24  and  _25
REMARK   12  A    between atoms: _28  and  _30
REMARK   13  A    between atoms: _30  and  _31
REMARK   14  A    between atoms: _30  and  _33
REMARK   15  A    between atoms: _33  and  _34
REMARK   16  A    between atoms: _37  and  _39
REMARK   17  A    between atoms: _39  and  _40
REMARK   18  A    between atoms: _39  and  _42
REMARK   19  A    between atoms: _42  and  _43
REMARK   20  A    between atoms: _43  and  _44
REMARK   21  A    between atoms: _49  and  _51
REMARK   22  A    between atoms: _51  and  _52
REMARK   23  A    between atoms: _51  and  _54
REMARK   24  A    between atoms: _57  and  _59
REMARK   25  A    between atoms: _59  and  _60
REMARK   26  A    between atoms: _63  and  _65
REMARK   27  A    between atoms: _65  and  _66
REMARK   28  A    between atoms: _65  and  _68
REMARK   29  A    between atoms: _68  and  _69
REMARK   30  A    between atoms: _72  and  _74
REMARK   31  A    between atoms: _74  and  _75
REMARK   32  A    between atoms: _74  and  _77
REMARK   33  A    between atoms: _77  and  _78
REMARK   34  A    between atoms: _81  and  _83
REMARK   35  A    between atoms: _83  and  _84
REMARK   36  A    between atoms: _83  and  _86
REMARK   37  A    between atoms: _86  and  _87
REMARK   38  A    between atoms: _87  and  _88
REMARK   39  A    between atoms: _88  and  _89
REMARK   40  A    between atoms: _89  and  _90
REMARK   41  A    between atoms: _94  and  _96
REMARK   42  A    between atoms: _96  and  _97
REMARK   43  A    between atoms: _96  and  _99
REMARK   44  A    between atoms: _99  and  _100
REMARK   45  A    between atoms: _100  and  _101
REMARK   46  A    between atoms: _106  and  _108
REMARK   47  A    between atoms: _108  and  _109
REMARK   48  A    between atoms: _108  and  _111
REMARK   49  A    between atoms: _111  and  _112
REMARK   50  A    between atoms: _112  and  _113
REMARK   51  A    between atoms: _118  and  _120
REMARK   52  A    between atoms: _120  and  _121
REMARK   53  A    between atoms: _120  and  _123
REMARK   54  A    between atoms: _123  and  _124
REMARK   55  A    between atoms: _124  and  _125
REMARK   56  A    between atoms: _128  and  _130
REMARK   57  A    between atoms: _130  and  _131
REMARK   58  A    between atoms: _130  and  _133
REMARK   59  A    between atoms: _133  and  _134
REMARK   60  A    between atoms: _134  and  _135
REMARK   61  A    between atoms: _135  and  _136
REMARK   62  A    between atoms: _136  and  _137
REMARK   63  A    between atoms: _141  and  _143
REMARK   64  A    between atoms: _143  and  _144
REMARK   65  A    between atoms: _143  and  _146
REMARK   66  A    between atoms: _146  and  _147
REMARK   67  A    between atoms: _150  and  _152
REMARK   68  A    between atoms: _152  and  _153
REMARK   69  A    between atoms: _152  and  _155
REMARK   70  A    between atoms: _155  and  _156
REMARK   71  A    between atoms: _167  and  _168
REMARK   72  A    between atoms: _173  and  _175
REMARK   73  A    between atoms: _175  and  _176
REMARK   74  A    between atoms: _175  and  _178
REMARK   75  A    between atoms: _178  and  _179
REMARK   76  A    between atoms: _184  and  _186
REMARK   77  A    between atoms: _186  and  _187
REMARK   78  A    between atoms: _186  and  _189
REMARK   79  A    between atoms: _189  and  _190
REMARK   80  A    between atoms: _193  and  _195
REMARK   81  A    between atoms: _195  and  _196
REMARK   82  A    between atoms: _195  and  _198
REMARK   83  A    between atoms: _198  and  _199
REMARK   84  A    between atoms: _199  and  _200
REMARK   85  A    between atoms: _200  and  _201
REMARK   86  A    between atoms: _210  and  _212
REMARK   87  A    between atoms: _212  and  _213
REMARK   88  A    between atoms: _212  and  _215
REMARK   89  A    between atoms: _215  and  _216
REMARK   90  A    between atoms: _219  and  _221
REMARK   91  A    between atoms: _221  and  _222
REMARK   92  A    between atoms: _221  and  _224
REMARK   93  A    between atoms: _224  and  _225
REMARK   94  A    between atoms: _225  and  _226
REMARK   95  A    between atoms: _229  and  _231
REMARK   96  A    between atoms: _231  and  _232
REMARK   97  A    between atoms: _231  and  _234
REMARK   98  A    between atoms: _234  and  _235
REMARK   99  A    between atoms: _235  and  _236
REMARK  100  A    between atoms: _236  and  _237
REMARK  101  A    between atoms: _237  and  _238
REMARK  102  A    between atoms: _242  and  _244
REMARK  103  A    between atoms: _244  and  _245
REMARK  104  A    between atoms: _248  and  _250
REMARK  105  A    between atoms: _250  and  _251
REMARK  106  A    between atoms: _250  and  _253
REMARK  107  A    between atoms: _253  and  _254
REMARK  108  A    between atoms: _254  and  _255
REMARK  109  A    between atoms: _258  and  _260
REMARK  110  A    between atoms: _260  and  _261
REMARK  111  A    between atoms: _260  and  _263
REMARK  112  A    between atoms: _263  and  _264
REMARK  113  A    between atoms: _266  and  _268
REMARK  114  A    between atoms: _268  and  _269
REMARK  115  A    between atoms: _268  and  _271
REMARK  116  A    between atoms: _274  and  _276
REMARK  117  A    between atoms: _276  and  _277
REMARK  118  A    between atoms: _276  and  _279
REMARK  119  A    between atoms: _279  and  _280
REMARK  120  A    between atoms: _280  and  _281
REMARK  121  A    between atoms: _284  and  _286
REMARK  122  A    between atoms: _286  and  _287
REMARK  123  A    between atoms: _286  and  _289
REMARK  124  A    between atoms: _289  and  _290
REMARK  125  A    between atoms: _295  and  _297
REMARK  126  A    between atoms: _297  and  _298
REMARK  127  A    between atoms: _297  and  _300
REMARK  128  A    between atoms: _300  and  _301
REMARK  129  A    between atoms: _306  and  _308
REMARK  130  A    between atoms: _308  and  _309
REMARK  131  A    between atoms: _308  and  _311
REMARK  132  A    between atoms: _311  and  _312
REMARK  133  A    between atoms: _318  and  _320
REMARK  134  A    between atoms: _320  and  _321
REMARK  135  A    between atoms: _320  and  _323
REMARK  136  A    between atoms: _323  and  _324
REMARK  137  A    between atoms: _329  and  _330
REMARK  138  A    between atoms: _332  and  _334
REMARK  139  A    between atoms: _334  and  _335
REMARK  140  A    between atoms: _334  and  _337
REMARK  141  A    between atoms: _337  and  _338
REMARK  142  A    between atoms: _343  and  _344
REMARK  143  A    between atoms: _346  and  _348
REMARK  144  A    between atoms: _348  and  _349
REMARK  145  A    between atoms: _348  and  _351
REMARK  146  A    between atoms: _351  and  _352
REMARK  147  A    between atoms: _355  and  _357
REMARK  148  A    between atoms: _357  and  _358
REMARK  149  A    between atoms: _357  and  _360
REMARK  150  A    between atoms: _360  and  _361
REMARK  151  A    between atoms: _364  and  _366
REMARK  152  A    between atoms: _366  and  _367
REMARK  153  A    between atoms: _366  and  _369
REMARK  154  A    between atoms: _369  and  _370
REMARK  155  A    between atoms: _370  and  _371
REMARK  156  A    between atoms: _371  and  _372
REMARK  157  A    between atoms: _372  and  _373
REMARK  158  A    between atoms: _377  and  _379
REMARK  159  A    between atoms: _379  and  _380
REMARK  160  A    between atoms: _383  and  _385
REMARK  161  A    between atoms: _385  and  _386
REMARK  162  A    between atoms: _385  and  _388
REMARK  163  A    between atoms: _388  and  _389
REMARK  164  A    between atoms: _392  and  _394
REMARK  165  A    between atoms: _394  and  _395
REMARK  166  A    between atoms: _394  and  _397
REMARK  167  A    between atoms: _397  and  _398
REMARK  168  A    between atoms: _401  and  _403
REMARK  169  A    between atoms: _403  and  _404
REMARK  170  A    between atoms: _403  and  _406
REMARK  171  A    between atoms: _409  and  _411
REMARK  172  A    between atoms: _411  and  _412
REMARK  173  A    between atoms: _411  and  _414
REMARK  174  A    between atoms: _414  and  _415
REMARK  175  A    between atoms: _420  and  _422
REMARK  176  A    between atoms: _422  and  _423
REMARK  177  A    between atoms: _422  and  _425
REMARK  178  A    between atoms: _425  and  _426
REMARK  179  A    between atoms: _431  and  _433
REMARK  180  A    between atoms: _433  and  _434
REMARK  181  A    between atoms: _437  and  _438
REMARK  182  A    between atoms: _443  and  _445
REMARK  183  A    between atoms: _445  and  _446
REMARK  184  A    between atoms: _445  and  _448
REMARK  185  A    between atoms: _448  and  _449
REMARK  186  A    between atoms: _459  and  _461
REMARK  187  A    between atoms: _461  and  _462
REMARK  188  A    between atoms: _465  and  _467
REMARK  189  A    between atoms: _467  and  _468
REMARK  190  A    between atoms: _467  and  _470
REMARK  191  A    between atoms: _470  and  _471
REMARK  192  A    between atoms: _476  and  _477
REMARK  193  A    between atoms: _479  and  _481
REMARK  194  A    between atoms: _481  and  _482
REMARK  195  A    between atoms: _481  and  _484
REMARK  196  A    between atoms: _484  and  _485
REMARK  197  A    between atoms: _491  and  _493
REMARK  198  A    between atoms: _493  and  _494
REMARK  199  A    between atoms: _493  and  _496
REMARK  200  A    between atoms: _496  and  _497
REMARK  201  A    between atoms: _500  and  _502
REMARK  202  A    between atoms: _502  and  _503
REMARK  203  A    between atoms: _505  and  _507
REMARK  204  A    between atoms: _507  and  _508
REMARK  205  A    between atoms: _507  and  _510
REMARK  206  A    between atoms: _513  and  _515
REMARK  207  A    between atoms: _515  and  _516
REMARK  208  A    between atoms: _515  and  _518
REMARK  209  A    between atoms: _518  and  _519
REMARK  210  A    between atoms: _519  and  _520
REMARK  211  A    between atoms: _520  and  _521
REMARK  212  A    between atoms: _521  and  _522
REMARK  213  A    between atoms: _526  and  _528
REMARK  214  A    between atoms: _528  and  _529
REMARK  215  A    between atoms: _528  and  _531
REMARK  216  A    between atoms: _531  and  _532
REMARK  217  A    between atoms: _532  and  _533
REMARK  218  A    between atoms: _533  and  _534
REMARK  219  A    between atoms: _543  and  _545
REMARK  220  A    between atoms: _545  and  _546
REMARK  221  A    between atoms: _545  and  _548
REMARK  222  A    between atoms: _548  and  _549
REMARK  223  A    between atoms: _549  and  _550
REMARK  224  A    between atoms: _553  and  _555
REMARK  225  A    between atoms: _555  and  _556
REMARK  226  A    between atoms: _555  and  _558
REMARK  227  A    between atoms: _558  and  _559
REMARK  228  A    between atoms: _559  and  _560
REMARK  229  A    between atoms: _563  and  _564
REMARK  230  A    between atoms: _569  and  _571
REMARK  231  A    between atoms: _571  and  _572
REMARK  232  A    between atoms: _571  and  _574
REMARK  233  A    between atoms: _574  and  _575
REMARK  234  A    between atoms: _575  and  _576
REMARK  235  A    between atoms: _578  and  _580
REMARK  236  A    between atoms: _580  and  _581
REMARK  237  A    between atoms: _583  and  _585
REMARK  238  A    between atoms: _585  and  _586
REMARK  239  A    between atoms: _585  and  _588
REMARK  240  A    between atoms: _591  and  _593
REMARK  241  A    between atoms: _593  and  _594
REMARK  242  A    between atoms: _593  and  _596
REMARK  243  A    between atoms: _596  and  _597
REMARK  244  A    between atoms: _607  and  _609
REMARK  245  A    between atoms: _609  and  _610
REMARK  246  A    between atoms: _609  and  _612
REMARK  247  A    between atoms: _612  and  _613
REMARK  248  A    between atoms: _613  and  _614
REMARK  249  A    between atoms: _618  and  _619
REMARK  250  A    between atoms: _624  and  _626
REMARK  251  A    between atoms: _626  and  _627
REMARK  252  A    between atoms: _626  and  _629
REMARK  253  A    between atoms: _629  and  _630
REMARK  254  A    between atoms: _633  and  _635
REMARK  255  A    between atoms: _635  and  _636
REMARK  256  A    between atoms: _635  and  _638
REMARK  257  A    between atoms: _638  and  _639
REMARK  258  A    between atoms: _644  and  _646
REMARK  259  A    between atoms: _646  and  _647
REMARK  260  A    between atoms: _646  and  _649
REMARK  261  A    between atoms: _649  and  _650
REMARK                            x       y       z     vdW  Elec       q    Type
REMARK                         _______ _______ _______ _____ _____    ______ ____
ROOT
ATOM      1  O   HOH     1      12.731   0.396  15.855  0.00  0.00    +0.000 OA
ENDROOT
TORSDOF 0
REMARK  Name = ../refined-set-2016/2zym/2zym_pocket.pdb
REMARK  261 active torsions:
REMARK  status: ('A' for Active; 'I' for Inactive)
REMARK    1  A    between atoms: _1  and  _3
REMARK    2  A    between atoms: _3  and  _4
REMARK    3  A    between atoms: _3  and  _6
REMARK    4  A    between atoms: _6  and  _7
REMARK    5  A    between atoms: _7  and  _8
REMARK    6  A    between atoms: _11  and  _13
REMARK    7  A    between atoms: _13  and  _14
REMARK    8  A    between atoms: _13  and  _16
REMARK    9  A    between atoms: _16  and  _17
REMARK   10  A    between atoms: _22  and  _24
REMARK   11  A    between atoms: _24  and  _25
REMARK   12  A    between atoms: _28  and  _30
REMARK   13  A    between atoms: _30  and  _31
REMARK   14  A    between atoms: _30  and  _33
REMARK   15  A    between atoms: _33  and  _34
REMARK   16  A    between atoms: _37  and  _39
REMARK   17  A    between atoms: _39  and  _40
REMARK   18  A    between atoms: _39  and  _42
REMARK   19  A    between atoms: _42  and  _43
REMARK   20  A    between atoms: _43  and  _44
REMARK   21  A    between atoms: _49  and  _51
REMARK   22  A    between atoms: _51  and  _52
REMARK   23  A    between atoms: _51  and  _54
REMARK   24  A    between atoms: _57  and  _59
REMARK   25  A    between atoms: _59  and  _60
REMARK   26  A    between atoms: _63  and  _65
REMARK   27  A    between atoms: _65  and  _66
REMARK   28  A    between atoms: _65  and  _68
REMARK   29  A    between atoms: _68  and  _69
REMARK   30  A    between atoms: _72  and  _74
REMARK   31  A    between atoms: _74  and  _75
REMARK   32  A    between atoms: _74  and  _77
REMARK   33  A    between atoms: _77  and  _78
REMARK   34  A    between atoms: _81  and  _83
REMARK   35  A    between atoms: _83  and  _84
REMARK   36  A    between atoms: _83  and  _86
REMARK   37  A    between atoms: _86  and  _87
REMARK   38  A    between atoms: _87  and  _88
REMARK   39  A    between atoms: _88  and  _89
REMARK   40  A    between atoms: _89  and  _90
REMARK   41  A    between atoms: _94  and  _96
REMARK   42  A    between atoms: _96  and  _97
REMARK   43  A    between atoms: _96  and  _99
REMARK   44  A    between atoms: _99  and  _100
REMARK   45  A    between atoms: _100  and  _101
REMARK   46  A    between atoms: _106  and  _108
REMARK   47  A    between atoms: _108  and  _109
REMARK   48  A    between atoms: _108  and  _111
REMARK   49  A    between atoms: _111  and  _112
REMARK   50  A    between atoms: _112  and  _113
REMARK   51  A    between atoms: _118  and  _120
REMARK   52  A    between atoms: _120  and  _121
REMARK   53  A    between atoms: _120  and  _123
REMARK   54  A    between atoms: _123  and  _124
REMARK   55  A    between atoms: _124  and  _125
REMARK   56  A    between atoms: _128  and  _130
REMARK   57  A    between atoms: _130  and  _131
REMARK   58  A    between atoms: _130  and  _133
REMARK   59  A    between atoms: _133  and  _134
REMARK   60  A    between atoms: _134  and  _135
REMARK   61  A    between atoms: _135  and  _136
REMARK   62  A    between atoms: _136  and  _137
REMARK   63  A    between atoms: _141  and  _143
REMARK   64  A    between atoms: _143  and  _144
REMARK   65  A    between atoms: _143  and  _146
REMARK   66  A    between atoms: _146  and  _147
REMARK   67  A    between atoms: _150  and  _152
REMARK   68  A    between atoms: _152  and  _153
REMARK   69  A    between atoms: _152  and  _155
REMARK   70  A    between atoms: _155  and  _156
REMARK   71  A    between atoms: _167  and  _168
REMARK   72  A    between atoms: _173  and  _175
REMARK   73  A    between atoms: _175  and  _176
REMARK   74  A    between atoms: _175  and  _178
REMARK   75  A    between atoms: _178  and  _179
REMARK   76  A    between atoms: _184  and  _186
REMARK   77  A    between atoms: _186  and  _187
REMARK   78  A    between atoms: _186  and  _189
REMARK   79  A    between atoms: _189  and  _190
REMARK   80  A    between atoms: _193  and  _195
REMARK   81  A    between atoms: _195  and  _196
REMARK   82  A    between atoms: _195  and  _198
REMARK   83  A    between atoms: _198  and  _199
REMARK   84  A    between atoms: _199  and  _200
REMARK   85  A    between atoms: _200  and  _201
REMARK   86  A    between atoms: _210  and  _212
REMARK   87  A    between atoms: _212  and  _213
REMARK   88  A    between atoms: _212  and  _215
REMARK   89  A    between atoms: _215  and  _216
REMARK   90  A    between atoms: _219  and  _221
REMARK   91  A    between atoms: _221  and  _222
REMARK   92  A    between atoms: _221  and  _224
REMARK   93  A    between atoms: _224  and  _225
REMARK   94  A    between atoms: _225  and  _226
REMARK   95  A    between atoms: _229  and  _231
REMARK   96  A    between atoms: _231  and  _232
REMARK   97  A    between atoms: _231  and  _234
REMARK   98  A    between atoms: _234  and  _235
REMARK   99  A    between atoms: _235  and  _236
REMARK  100  A    between atoms: _236  and  _237
REMARK  101  A    between atoms: _237  and  _238
REMARK  102  A    between atoms: _242  and  _244
REMARK  103  A    between atoms: _244  and  _245
REMARK  104  A    between atoms: _248  and  _250
REMARK  105  A    between atoms: _250  and  _251
REMARK  106  A    between atoms: _250  and  _253
REMARK  107  A    between atoms: _253  and  _254
REMARK  108  A    between atoms: _254  and  _255
REMARK  109  A    between atoms: _258  and  _260
REMARK  110  A    between atoms: _260  and  _261
REMARK  111  A    between atoms: _260  and  _263
REMARK  112  A    between atoms: _263  and  _264
REMARK  113  A    between atoms: _266  and  _268
REMARK  114  A    between atoms: _268  and  _269
REMARK  115  A    between atoms: _268  and  _271
REMARK  116  A    between atoms: _274  and  _276
REMARK  117  A    between atoms: _276  and  _277
REMARK  118  A    between atoms: _276  and  _279
REMARK  119  A    between atoms: _279  and  _280
REMARK  120  A    between atoms: _280  and  _281
REMARK  121  A    between atoms: _284  and  _286
REMARK  122  A    between atoms: _286  and  _287
REMARK  123  A    between atoms: _286  and  _289
REMARK  124  A    between atoms: _289  and  _290
REMARK  125  A    between atoms: _295  and  _297
REMARK  126  A    between atoms: _297  and  _298
REMARK  127  A    between atoms: _297  and  _300
REMARK  128  A    between atoms: _300  and  _301
REMARK  129  A    between atoms: _306  and  _308
REMARK  130  A    between atoms: _308  and  _309
REMARK  131  A    between atoms: _308  and  _311
REMARK  132  A    between atoms: _311  and  _312
REMARK  133  A    between atoms: _318  and  _320
REMARK  134  A    between atoms: _320  and  _321
REMARK  135  A    between atoms: _320  and  _323
REMARK  136  A    between atoms: _323  and  _324
REMARK  137  A    between atoms: _329  and  _330
REMARK  138  A    between atoms: _332  and  _334
REMARK  139  A    between atoms: _334  and  _335
REMARK  140  A    between atoms: _334  and  _337
REMARK  141  A    between atoms: _337  and  _338
REMARK  142  A    between atoms: _343  and  _344
REMARK  143  A    between atoms: _346  and  _348
REMARK  144  A    between atoms: _348  and  _349
REMARK  145  A    between atoms: _348  and  _351
REMARK  146  A    between atoms: _351  and  _352
REMARK  147  A    between atoms: _355  and  _357
REMARK  148  A    between atoms: _357  and  _358
REMARK  149  A    between atoms: _357  and  _360
REMARK  150  A    between atoms: _360  and  _361
REMARK  151  A    between atoms: _364  and  _366
REMARK  152  A    between atoms: _366  and  _367
REMARK  153  A    between atoms: _366  and  _369
REMARK  154  A    between atoms: _369  and  _370
REMARK  155  A    between atoms: _370  and  _371
REMARK  156  A    between atoms: _371  and  _372
REMARK  157  A    between atoms: _372  and  _373
REMARK  158  A    between atoms: _377  and  _379
REMARK  159  A    between atoms: _379  and  _380
REMARK  160  A    between atoms: _383  and  _385
REMARK  161  A    between atoms: _385  and  _386
REMARK  162  A    between atoms: _385  and  _388
REMARK  163  A    between atoms: _388  and  _389
REMARK  164  A    between atoms: _392  and  _394
REMARK  165  A    between atoms: _394  and  _395
REMARK  166  A    between atoms: _394  and  _397
REMARK  167  A    between atoms: _397  and  _398
REMARK  168  A    between atoms: _401  and  _403
REMARK  169  A    between atoms: _403  and  _404
REMARK  170  A    between atoms: _403  and  _406
REMARK  171  A    between atoms: _409  and  _411
REMARK  172  A    between atoms: _411  and  _412
REMARK  173  A    between atoms: _411  and  _414
REMARK  174  A    between atoms: _414  and  _415
REMARK  175  A    between atoms: _420  and  _422
REMARK  176  A    between atoms: _422  and  _423
REMARK  177  A    between atoms: _422  and  _425
REMARK  178  A    between atoms: _425  and  _426
REMARK  179  A    between atoms: _431  and  _433
REMARK  180  A    between atoms: _433  and  _434
REMARK  181  A    between atoms: _437  and  _438
REMARK  182  A    between atoms: _443  and  _445
REMARK  183  A    between atoms: _445  and  _446
REMARK  184  A    between atoms: _445  and  _448
REMARK  185  A    between atoms: _448  and  _449
REMARK  186  A    between atoms: _459  and  _461
REMARK  187  A    between atoms: _461  and  _462
REMARK  188  A    between atoms: _465  and  _467
REMARK  189  A    between atoms: _467  and  _468
REMARK  190  A    between atoms: _467  and  _470
REMARK  191  A    between atoms: _470  and  _471
REMARK  192  A    between atoms: _476  and  _477
REMARK  193  A    between atoms: _479  and  _481
REMARK  194  A    between atoms: _481  and  _482
REMARK  195  A    between atoms: _481  and  _484
REMARK  196  A    between atoms: _484  and  _485
REMARK  197  A    between atoms: _491  and  _493
REMARK  198  A    between atoms: _493  and  _494
REMARK  199  A    between atoms: _493  and  _496
REMARK  200  A    between atoms: _496  and  _497
REMARK  201  A    between atoms: _500  and  _502
REMARK  202  A    between atoms: _502  and  _503
REMARK  203  A    between atoms: _505  and  _507
REMARK  204  A    between atoms: _507  and  _508
REMARK  205  A    between atoms: _507  and  _510
REMARK  206  A    between atoms: _513  and  _515
REMARK  207  A    between atoms: _515  and  _516
REMARK  208  A    between atoms: _515  and  _518
REMARK  209  A    between atoms: _518  and  _519
REMARK  210  A    between atoms: _519  and  _520
REMARK  211  A    between atoms: _520  and  _521
REMARK  212  A    between atoms: _521  and  _522
REMARK  213  A    between atoms: _526  and  _528
REMARK  214  A    between atoms: _528  and  _529
REMARK  215  A    between atoms: _528  and  _531
REMARK  216  A    between atoms: _531  and  _532
REMARK  217  A    between atoms: _532  and  _533
REMARK  218  A    between atoms: _533  and  _534
REMARK  219  A    between atoms: _543  and  _545
REMARK  220  A    between atoms: _545  and  _546
REMARK  221  A    between atoms: _545  and  _548
REMARK  222  A    between atoms: _548  and  _549
REMARK  223  A    between atoms: _549  and  _550
REMARK  224  A    between atoms: _553  and  _555
REMARK  225  A    between atoms: _555  and  _556
REMARK  226  A    between atoms: _555  and  _558
REMARK  227  A    between atoms: _558  and  _559
REMARK  228  A    between atoms: _559  and  _560
REMARK  229  A    between atoms: _563  and  _564
REMARK  230  A    between atoms: _569  and  _571
REMARK  231  A    between atoms: _571  and  _572
REMARK  232  A    between atoms: _571  and  _574
REMARK  233  A    between atoms: _574  and  _575
REMARK  234  A    between atoms: _575  and  _576
REMARK  235  A    between atoms: _578  and  _580
REMARK  236  A    between atoms: _580  and  _581
REMARK  237  A    between atoms: _583  and  _585
REMARK  238  A    between atoms: _585  and  _586
REMARK  239  A    between atoms: _585  and  _588
REMARK  240  A    between atoms: _591  and  _593
REMARK  241  A    between atoms: _593  and  _594
REMARK  242  A    between atoms: _593  and  _596
REMARK  243  A    between atoms: _596  and  _597
REMARK  244  A    between atoms: _607  and  _609
REMARK  245  A    between atoms: _609  and  _610
REMARK  246  A    between atoms: _609  and  _612
REMARK  247  A    between atoms: _612  and  _613
REMARK  248  A    between atoms: _613  and  _614
REMARK  249  A    between atoms: _618  and  _619
REMARK  250  A    between atoms: _624  and  _626
REMARK  251  A    between atoms: _626  and  _627
REMARK  252  A    between atoms: _626  and  _629
REMARK  253  A    between atoms: _629  and  _630
REMARK  254  A    between atoms: _633  and  _635
REMARK  255  A    between atoms: _635  and  _636
REMARK  256  A    between atoms: _635  and  _638
REMARK  257  A    between atoms: _638  and  _639
REMARK  258  A    between atoms: _644  and  _646
REMARK  259  A    between atoms: _646  and  _647
REMARK  260  A    between atoms: _646  and  _649
REMARK  261  A    between atoms: _649  and  _650
REMARK                            x       y       z     vdW  Elec       q    Type
REMARK                         _______ _______ _______ _____ _____    ______ ____
ROOT
ATOM      1  O   HOH     1      21.768   6.923  22.795  0.00  0.00    +0.000 OA
ENDROOT
TORSDOF 0
REMARK  Name = ../refined-set-2016/2zym/2zym_pocket.pdb
REMARK  261 active torsions:
REMARK  status: ('A' for Active; 'I' for Inactive)
REMARK    1  A    between atoms: _1  and  _3
REMARK    2  A    between atoms: _3  and  _4
REMARK    3  A    between atoms: _3  and  _6
REMARK    4  A    between atoms: _6  and  _7
REMARK    5  A    between atoms: _7  and  _8
REMARK    6  A    between atoms: _11  and  _13
REMARK    7  A    between atoms: _13  and  _14
REMARK    8  A    between atoms: _13  and  _16
REMARK    9  A    between atoms: _16  and  _17
REMARK   10  A    between atoms: _22  and  _24
REMARK   11  A    between atoms: _24  and  _25
REMARK   12  A    between atoms: _28  and  _30
REMARK   13  A    between atoms: _30  and  _31
REMARK   14  A    between atoms: _30  and  _33
REMARK   15  A    between atoms: _33  and  _34
REMARK   16  A    between atoms: _37  and  _39
REMARK   17  A    between atoms: _39  and  _40
REMARK   18  A    between atoms: _39  and  _42
REMARK   19  A    between atoms: _42  and  _43
REMARK   20  A    between atoms: _43  and  _44
REMARK   21  A    between atoms: _49  and  _51
REMARK   22  A    between atoms: _51  and  _52
REMARK   23  A    between atoms: _51  and  _54
REMARK   24  A    between atoms: _57  and  _59
REMARK   25  A    between atoms: _59  and  _60
REMARK   26  A    between atoms: _63  and  _65
REMARK   27  A    between atoms: _65  and  _66
REMARK   28  A    between atoms: _65  and  _68
REMARK   29  A    between atoms: _68  and  _69
REMARK   30  A    between atoms: _72  and  _74
REMARK   31  A    between atoms: _74  and  _75
REMARK   32  A    between atoms: _74  and  _77
REMARK   33  A    between atoms: _77  and  _78
REMARK   34  A    between atoms: _81  and  _83
REMARK   35  A    between atoms: _83  and  _84
REMARK   36  A    between atoms: _83  and  _86
REMARK   37  A    between atoms: _86  and  _87
REMARK   38  A    between atoms: _87  and  _88
REMARK   39  A    between atoms: _88  and  _89
REMARK   40  A    between atoms: _89  and  _90
REMARK   41  A    between atoms: _94  and  _96
REMARK   42  A    between atoms: _96  and  _97
REMARK   43  A    between atoms: _96  and  _99
REMARK   44  A    between atoms: _99  and  _100
REMARK   45  A    between atoms: _100  and  _101
REMARK   46  A    between atoms: _106  and  _108
REMARK   47  A    between atoms: _108  and  _109
REMARK   48  A    between atoms: _108  and  _111
REMARK   49  A    between atoms: _111  and  _112
REMARK   50  A    between atoms: _112  and  _113
REMARK   51  A    between atoms: _118  and  _120
REMARK   52  A    between atoms: _120  and  _121
REMARK   53  A    between atoms: _120  and  _123
REMARK   54  A    between atoms: _123  and  _124
REMARK   55  A    between atoms: _124  and  _125
REMARK   56  A    between atoms: _128  and  _130
REMARK   57  A    between atoms: _130  and  _131
REMARK   58  A    between atoms: _130  and  _133
REMARK   59  A    between atoms: _133  and  _134
REMARK   60  A    between atoms: _134  and  _135
REMARK   61  A    between atoms: _135  and  _136
REMARK   62  A    between atoms: _136  and  _137
REMARK   63  A    between atoms: _141  and  _143
REMARK   64  A    between atoms: _143  and  _144
REMARK   65  A    between atoms: _143  and  _146
REMARK   66  A    between atoms: _146  and  _147
REMARK   67  A    between atoms: _150  and  _152
REMARK   68  A    between atoms: _152  and  _153
REMARK   69  A    between atoms: _152  and  _155
REMARK   70  A    between atoms: _155  and  _156
REMARK   71  A    between atoms: _167  and  _168
REMARK   72  A    between atoms: _173  and  _175
REMARK   73  A    between atoms: _175  and  _176
REMARK   74  A    between atoms: _175  and  _178
REMARK   75  A    between atoms: _178  and  _179
REMARK   76  A    between atoms: _184  and  _186
REMARK   77  A    between atoms: _186  and  _187
REMARK   78  A    between atoms: _186  and  _189
REMARK   79  A    between atoms: _189  and  _190
REMARK   80  A    between atoms: _193  and  _195
REMARK   81  A    between atoms: _195  and  _196
REMARK   82  A    between atoms: _195  and  _198
REMARK   83  A    between atoms: _198  and  _199
REMARK   84  A    between atoms: _199  and  _200
REMARK   85  A    between atoms: _200  and  _201
REMARK   86  A    between atoms: _210  and  _212
REMARK   87  A    between atoms: _212  and  _213
REMARK   88  A    between atoms: _212  and  _215
REMARK   89  A    between atoms: _215  and  _216
REMARK   90  A    between atoms: _219  and  _221
REMARK   91  A    between atoms: _221  and  _222
REMARK   92  A    between atoms: _221  and  _224
REMARK   93  A    between atoms: _224  and  _225
REMARK   94  A    between atoms: _225  and  _226
REMARK   95  A    between atoms: _229  and  _231
REMARK   96  A    between atoms: _231  and  _232
REMARK   97  A    between atoms: _231  and  _234
REMARK   98  A    between atoms: _234  and  _235
REMARK   99  A    between atoms: _235  and  _236
REMARK  100  A    between atoms: _236  and  _237
REMARK  101  A    between atoms: _237  and  _238
REMARK  102  A    between atoms: _242  and  _244
REMARK  103  A    between atoms: _244  and  _245
REMARK  104  A    between atoms: _248  and  _250
REMARK  105  A    between atoms: _250  and  _251
REMARK  106  A    between atoms: _250  and  _253
REMARK  107  A    between atoms: _253  and  _254
REMARK  108  A    between atoms: _254  and  _255
REMARK  109  A    between atoms: _258  and  _260
REMARK  110  A    between atoms: _260  and  _261
REMARK  111  A    between atoms: _260  and  _263
REMARK  112  A    between atoms: _263  and  _264
REMARK  113  A    between atoms: _266  and  _268
REMARK  114  A    between atoms: _268  and  _269
REMARK  115  A    between atoms: _268  and  _271
REMARK  116  A    between atoms: _274  and  _276
REMARK  117  A    between atoms: _276  and  _277
REMARK  118  A    between atoms: _276  and  _279
REMARK  119  A    between atoms: _279  and  _280
REMARK  120  A    between atoms: _280  and  _281
REMARK  121  A    between atoms: _284  and  _286
REMARK  122  A    between atoms: _286  and  _287
REMARK  123  A    between atoms: _286  and  _289
REMARK  124  A    between atoms: _289  and  _290
REMARK  125  A    between atoms: _295  and  _297
REMARK  126  A    between atoms: _297  and  _298
REMARK  127  A    between atoms: _297  and  _300
REMARK  128  A    between atoms: _300  and  _301
REMARK  129  A    between atoms: _306  and  _308
REMARK  130  A    between atoms: _308  and  _309
REMARK  131  A    between atoms: _308  and  _311
REMARK  132  A    between atoms: _311  and  _312
REMARK  133  A    between atoms: _318  and  _320
REMARK  134  A    between atoms: _320  and  _321
REMARK  135  A    between atoms: _320  and  _323
REMARK  136  A    between atoms: _323  and  _324
REMARK  137  A    between atoms: _329  and  _330
REMARK  138  A    between atoms: _332  and  _334
REMARK  139  A    between atoms: _334  and  _335
REMARK  140  A    between atoms: _334  and  _337
REMARK  141  A    between atoms: _337  and  _338
REMARK  142  A    between atoms: _343  and  _344
REMARK  143  A    between atoms: _346  and  _348
REMARK  144  A    between atoms: _348  and  _349
REMARK  145  A    between atoms: _348  and  _351
REMARK  146  A    between atoms: _351  and  _352
REMARK  147  A    between atoms: _355  and  _357
REMARK  148  A    between atoms: _357  and  _358
REMARK  149  A    between atoms: _357  and  _360
REMARK  150  A    between atoms: _360  and  _361
REMARK  151  A    between atoms: _364  and  _366
REMARK  152  A    between atoms: _366  and  _367
REMARK  153  A    between atoms: _366  and  _369
REMARK  154  A    between atoms: _369  and  _370
REMARK  155  A    between atoms: _370  and  _371
REMARK  156  A    between atoms: _371  and  _372
REMARK  157  A    between atoms: _372  and  _373
REMARK  158  A    between atoms: _377  and  _379
REMARK  159  A    between atoms: _379  and  _380
REMARK  160  A    between atoms: _383  and  _385
REMARK  161  A    between atoms: _385  and  _386
REMARK  162  A    between atoms: _385  and  _388
REMARK  163  A    between atoms: _388  and  _389
REMARK  164  A    between atoms: _392  and  _394
REMARK  165  A    between atoms: _394  and  _395
REMARK  166  A    between atoms: _394  and  _397
REMARK  167  A    between atoms: _397  and  _398
REMARK  168  A    between atoms: _401  and  _403
REMARK  169  A    between atoms: _403  and  _404
REMARK  170  A    between atoms: _403  and  _406
REMARK  171  A    between atoms: _409  and  _411
REMARK  172  A    between atoms: _411  and  _412
REMARK  173  A    between atoms: _411  and  _414
REMARK  174  A    between atoms: _414  and  _415
REMARK  175  A    between atoms: _420  and  _422
REMARK  176  A    between atoms: _422  and  _423
REMARK  177  A    between atoms: _422  and  _425
REMARK  178  A    between atoms: _425  and  _426
REMARK  179  A    between atoms: _431  and  _433
REMARK  180  A    between atoms: _433  and  _434
REMARK  181  A    between atoms: _437  and  _438
REMARK  182  A    between atoms: _443  and  _445
REMARK  183  A    between atoms: _445  and  _446
REMARK  184  A    between atoms: _445  and  _448
REMARK  185  A    between atoms: _448  and  _449
REMARK  186  A    between atoms: _459  and  _461
REMARK  187  A    between atoms: _461  and  _462
REMARK  188  A    between atoms: _465  and  _467
REMARK  189  A    between atoms: _467  and  _468
REMARK  190  A    between atoms: _467  and  _470
REMARK  191  A    between atoms: _470  and  _471
REMARK  192  A    between atoms: _476  and  _477
REMARK  193  A    between atoms: _479  and  _481
REMARK  194  A    between atoms: _481  and  _482
REMARK  195  A    between atoms: _481  and  _484
REMARK  196  A    between atoms: _484  and  _485
REMARK  197  A    between atoms: _491  and  _493
REMARK  198  A    between atoms: _493  and  _494
REMARK  199  A    between atoms: _493  and  _496
REMARK  200  A    between atoms: _496  and  _497
REMARK  201  A    between atoms: _500  and  _502
REMARK  202  A    between atoms: _502  and  _503
REMARK  203  A    between atoms: _505  and  _507
REMARK  204  A    between atoms: _507  and  _508
REMARK  205  A    between atoms: _507  and  _510
REMARK  206  A    between atoms: _513  and  _515
REMARK  207  A    between atoms: _515  and  _516
REMARK  208  A    between atoms: _515  and  _518
REMARK  209  A    between atoms: _518  and  _519
REMARK  210  A    between atoms: _519  and  _520
REMARK  211  A    between atoms: _520  and  _521
REMARK  212  A    between atoms: _521  and  _522
REMARK  213  A    between atoms: _526  and  _528
REMARK  214  A    between atoms: _528  and  _529
REMARK  215  A    between atoms: _528  and  _531
REMARK  216  A    between atoms: _531  and  _532
REMARK  217  A    between atoms: _532  and  _533
REMARK  218  A    between atoms: _533  and  _534
REMARK  219  A    between atoms: _543  and  _545
REMARK  220  A    between atoms: _545  and  _546
REMARK  221  A    between atoms: _545  and  _548
REMARK  222  A    between atoms: _548  and  _549
REMARK  223  A    between atoms: _549  and  _550
REMARK  224  A    between atoms: _553  and  _555
REMARK  225  A    between atoms: _555  and  _556
REMARK  226  A    between atoms: _555  and  _558
REMARK  227  A    between atoms: _558  and  _559
REMARK  228  A    between atoms: _559  and  _560
REMARK  229  A    between atoms: _563  and  _564
REMARK  230  A    between atoms: _569  and  _571
REMARK  231  A    between atoms: _571  and  _572
REMARK  232  A    between atoms: _571  and  _574
REMARK  233  A    between atoms: _574  and  _575
REMARK  234  A    between atoms: _575  and  _576
REMARK  235  A    between atoms: _578  and  _580
REMARK  236  A    between atoms: _580  and  _581
REMARK  237  A    between atoms: _583  and  _585
REMARK  238  A    between atoms: _585  and  _586
REMARK  239  A    between atoms: _585  and  _588
REMARK  240  A    between atoms: _591  and  _593
REMARK  241  A    between atoms: _593  and  _594
REMARK  242  A    between atoms: _593  and  _596
REMARK  243  A    between atoms: _596  and  _597
REMARK  244  A    between atoms: _607  and  _609
REMARK  245  A    between atoms: _609  and  _610
REMARK  246  A    between atoms: _609  and  _612
REMARK  247  A    between atoms: _612  and  _613
REMARK  248  A    between atoms: _613  and  _614
REMARK  249  A    between atoms: _618  and  _619
REMARK  250  A    between atoms: _624  and  _626
REMARK  251  A    between atoms: _626  and  _627
REMARK  252  A    between atoms: _626  and  _629
REMARK  253  A    between atoms: _629  and  _630
REMARK  254  A    between atoms: _633  and  _635
REMARK  255  A    between atoms: _635  and  _636
REMARK  256  A    between atoms: _635  and  _638
REMARK  257  A    between atoms: _638  and  _639
REMARK  258  A    between atoms: _644  and  _646
REMARK  259  A    between atoms: _646  and  _647
REMARK  260  A    between atoms: _646  and  _649
REMARK  261  A    between atoms: _649  and  _650
REMARK                            x       y       z     vdW  Elec       q    Type
REMARK                         _______ _______ _______ _____ _____    ______ ____
ROOT
ATOM      1  O   HOH     1      19.710   2.542   9.369  0.00  0.00    +0.000 OA
ENDROOT
TORSDOF 0
REMARK  Name = ../refined-set-2016/2zym/2zym_pocket.pdb
REMARK  261 active torsions:
REMARK  status: ('A' for Active; 'I' for Inactive)
REMARK    1  A    between atoms: _1  and  _3
REMARK    2  A    between atoms: _3  and  _4
REMARK    3  A    between atoms: _3  and  _6
REMARK    4  A    between atoms: _6  and  _7
REMARK    5  A    between atoms: _7  and  _8
REMARK    6  A    between atoms: _11  and  _13
REMARK    7  A    between atoms: _13  and  _14
REMARK    8  A    between atoms: _13  and  _16
REMARK    9  A    between atoms: _16  and  _17
REMARK   10  A    between atoms: _22  and  _24
REMARK   11  A    between atoms: _24  and  _25
REMARK   12  A    between atoms: _28  and  _30
REMARK   13  A    between atoms: _30  and  _31
REMARK   14  A    between atoms: _30  and  _33
REMARK   15  A    between atoms: _33  and  _34
REMARK   16  A    between atoms: _37  and  _39
REMARK   17  A    between atoms: _39  and  _40
REMARK   18  A    between atoms: _39  and  _42
REMARK   19  A    between atoms: _42  and  _43
REMARK   20  A    between atoms: _43  and  _44
REMARK   21  A    between atoms: _49  and  _51
REMARK   22  A    between atoms: _51  and  _52
REMARK   23  A    between atoms: _51  and  _54
REMARK   24  A    between atoms: _57  and  _59
REMARK   25  A    between atoms: _59  and  _60
REMARK   26  A    between atoms: _63  and  _65
REMARK   27  A    between atoms: _65  and  _66
REMARK   28  A    between atoms: _65  and  _68
REMARK   29  A    between atoms: _68  and  _69
REMARK   30  A    between atoms: _72  and  _74
REMARK   31  A    between atoms: _74  and  _75
REMARK   32  A    between atoms: _74  and  _77
REMARK   33  A    between atoms: _77  and  _78
REMARK   34  A    between atoms: _81  and  _83
REMARK   35  A    between atoms: _83  and  _84
REMARK   36  A    between atoms: _83  and  _86
REMARK   37  A    between atoms: _86  and  _87
REMARK   38  A    between atoms: _87  and  _88
REMARK   39  A    between atoms: _88  and  _89
REMARK   40  A    between atoms: _89  and  _90
REMARK   41  A    between atoms: _94  and  _96
REMARK   42  A    between atoms: _96  and  _97
REMARK   43  A    between atoms: _96  and  _99
REMARK   44  A    between atoms: _99  and  _100
REMARK   45  A    between atoms: _100  and  _101
REMARK   46  A    between atoms: _106  and  _108
REMARK   47  A    between atoms: _108  and  _109
REMARK   48  A    between atoms: _108  and  _111
REMARK   49  A    between atoms: _111  and  _112
REMARK   50  A    between atoms: _112  and  _113
REMARK   51  A    between atoms: _118  and  _120
REMARK   52  A    between atoms: _120  and  _121
REMARK   53  A    between atoms: _120  and  _123
REMARK   54  A    between atoms: _123  and  _124
REMARK   55  A    between atoms: _124  and  _125
REMARK   56  A    between atoms: _128  and  _130
REMARK   57  A    between atoms: _130  and  _131
REMARK   58  A    between atoms: _130  and  _133
REMARK   59  A    between atoms: _133  and  _134
REMARK   60  A    between atoms: _134  and  _135
REMARK   61  A    between atoms: _135  and  _136
REMARK   62  A    between atoms: _136  and  _137
REMARK   63  A    between atoms: _141  and  _143
REMARK   64  A    between atoms: _143  and  _144
REMARK   65  A    between atoms: _143  and  _146
REMARK   66  A    between atoms: _146  and  _147
REMARK   67  A    between atoms: _150  and  _152
REMARK   68  A    between atoms: _152  and  _153
REMARK   69  A    between atoms: _152  and  _155
REMARK   70  A    between atoms: _155  and  _156
REMARK   71  A    between atoms: _167  and  _168
REMARK   72  A    between atoms: _173  and  _175
REMARK   73  A    between atoms: _175  and  _176
REMARK   74  A    between atoms: _175  and  _178
REMARK   75  A    between atoms: _178  and  _179
REMARK   76  A    between atoms: _184  and  _186
REMARK   77  A    between atoms: _186  and  _187
REMARK   78  A    between atoms: _186  and  _189
REMARK   79  A    between atoms: _189  and  _190
REMARK   80  A    between atoms: _193  and  _195
REMARK   81  A    between atoms: _195  and  _196
REMARK   82  A    between atoms: _195  and  _198
REMARK   83  A    between atoms: _198  and  _199
REMARK   84  A    between atoms: _199  and  _200
REMARK   85  A    between atoms: _200  and  _201
REMARK   86  A    between atoms: _210  and  _212
REMARK   87  A    between atoms: _212  and  _213
REMARK   88  A    between atoms: _212  and  _215
REMARK   89  A    between atoms: _215  and  _216
REMARK   90  A    between atoms: _219  and  _221
REMARK   91  A    between atoms: _221  and  _222
REMARK   92  A    between atoms: _221  and  _224
REMARK   93  A    between atoms: _224  and  _225
REMARK   94  A    between atoms: _225  and  _226
REMARK   95  A    between atoms: _229  and  _231
REMARK   96  A    between atoms: _231  and  _232
REMARK   97  A    between atoms: _231  and  _234
REMARK   98  A    between atoms: _234  and  _235
REMARK   99  A    between atoms: _235  and  _236
REMARK  100  A    between atoms: _236  and  _237
REMARK  101  A    between atoms: _237  and  _238
REMARK  102  A    between atoms: _242  and  _244
REMARK  103  A    between atoms: _244  and  _245
REMARK  104  A    between atoms: _248  and  _250
REMARK  105  A    between atoms: _250  and  _251
REMARK  106  A    between atoms: _250  and  _253
REMARK  107  A    between atoms: _253  and  _254
REMARK  108  A    between atoms: _254  and  _255
REMARK  109  A    between atoms: _258  and  _260
REMARK  110  A    between atoms: _260  and  _261
REMARK  111  A    between atoms: _260  and  _263
REMARK  112  A    between atoms: _263  and  _264
REMARK  113  A    between atoms: _266  and  _268
REMARK  114  A    between atoms: _268  and  _269
REMARK  115  A    between atoms: _268  and  _271
REMARK  116  A    between atoms: _274  and  _276
REMARK  117  A    between atoms: _276  and  _277
REMARK  118  A    between atoms: _276  and  _279
REMARK  119  A    between atoms: _279  and  _280
REMARK  120  A    between atoms: _280  and  _281
REMARK  121  A    between atoms: _284  and  _286
REMARK  122  A    between atoms: _286  and  _287
REMARK  123  A    between atoms: _286  and  _289
REMARK  124  A    between atoms: _289  and  _290
REMARK  125  A    between atoms: _295  and  _297
REMARK  126  A    between atoms: _297  and  _298
REMARK  127  A    between atoms: _297  and  _300
REMARK  128  A    between atoms: _300  and  _301
REMARK  129  A    between atoms: _306  and  _308
REMARK  130  A    between atoms: _308  and  _309
REMARK  131  A    between atoms: _308  and  _311
REMARK  132  A    between atoms: _311  and  _312
REMARK  133  A    between atoms: _318  and  _320
REMARK  134  A    between atoms: _320  and  _321
REMARK  135  A    between atoms: _320  and  _323
REMARK  136  A    between atoms: _323  and  _324
REMARK  137  A    between atoms: _329  and  _330
REMARK  138  A    between atoms: _332  and  _334
REMARK  139  A    between atoms: _334  and  _335
REMARK  140  A    between atoms: _334  and  _337
REMARK  141  A    between atoms: _337  and  _338
REMARK  142  A    between atoms: _343  and  _344
REMARK  143  A    between atoms: _346  and  _348
REMARK  144  A    between atoms: _348  and  _349
REMARK  145  A    between atoms: _348  and  _351
REMARK  146  A    between atoms: _351  and  _352
REMARK  147  A    between atoms: _355  and  _357
REMARK  148  A    between atoms: _357  and  _358
REMARK  149  A    between atoms: _357  and  _360
REMARK  150  A    between atoms: _360  and  _361
REMARK  151  A    between atoms: _364  and  _366
REMARK  152  A    between atoms: _366  and  _367
REMARK  153  A    between atoms: _366  and  _369
REMARK  154  A    between atoms: _369  and  _370
REMARK  155  A    between atoms: _370  and  _371
REMARK  156  A    between atoms: _371  and  _372
REMARK  157  A    between atoms: _372  and  _373
REMARK  158  A    between atoms: _377  and  _379
REMARK  159  A    between atoms: _379  and  _380
REMARK  160  A    between atoms: _383  and  _385
REMARK  161  A    between atoms: _385  and  _386
REMARK  162  A    between atoms: _385  and  _388
REMARK  163  A    between atoms: _388  and  _389
REMARK  164  A    between atoms: _392  and  _394
REMARK  165  A    between atoms: _394  and  _395
REMARK  166  A    between atoms: _394  and  _397
REMARK  167  A    between atoms: _397  and  _398
REMARK  168  A    between atoms: _401  and  _403
REMARK  169  A    between atoms: _403  and  _404
REMARK  170  A    between atoms: _403  and  _406
REMARK  171  A    between atoms: _409  and  _411
REMARK  172  A    between atoms: _411  and  _412
REMARK  173  A    between atoms: _411  and  _414
REMARK  174  A    between atoms: _414  and  _415
REMARK  175  A    between atoms: _420  and  _422
REMARK  176  A    between atoms: _422  and  _423
REMARK  177  A    between atoms: _422  and  _425
REMARK  178  A    between atoms: _425  and  _426
REMARK  179  A    between atoms: _431  and  _433
REMARK  180  A    between atoms: _433  and  _434
REMARK  181  A    between atoms: _437  and  _438
REMARK  182  A    between atoms: _443  and  _445
REMARK  183  A    between atoms: _445  and  _446
REMARK  184  A    between atoms: _445  and  _448
REMARK  185  A    between atoms: _448  and  _449
REMARK  186  A    between atoms: _459  and  _461
REMARK  187  A    between atoms: _461  and  _462
REMARK  188  A    between atoms: _465  and  _467
REMARK  189  A    between atoms: _467  and  _468
REMARK  190  A    between atoms: _467  and  _470
REMARK  191  A    between atoms: _470  and  _471
REMARK  192  A    between atoms: _476  and  _477
REMARK  193  A    between atoms: _479  and  _481
REMARK  194  A    between atoms: _481  and  _482
REMARK  195  A    between atoms: _481  and  _484
REMARK  196  A    between atoms: _484  and  _485
REMARK  197  A    between atoms: _491  and  _493
REMARK  198  A    between atoms: _493  and  _494
REMARK  199  A    between atoms: _493  and  _496
REMARK  200  A    between atoms: _496  and  _497
REMARK  201  A    between atoms: _500  and  _502
REMARK  202  A    between atoms: _502  and  _503
REMARK  203  A    between atoms: _505  and  _507
REMARK  204  A    between atoms: _507  and  _508
REMARK  205  A    between atoms: _507  and  _510
REMARK  206  A    between atoms: _513  and  _515
REMARK  207  A    between atoms: _515  and  _516
REMARK  208  A    between atoms: _515  and  _518
REMARK  209  A    between atoms: _518  and  _519
REMARK  210  A    between atoms: _519  and  _520
REMARK  211  A    between atoms: _520  and  _521
REMARK  212  A    between atoms: _521  and  _522
REMARK  213  A    between atoms: _526  and  _528
REMARK  214  A    between atoms: _528  and  _529
REMARK  215  A    between atoms: _528  and  _531
REMARK  216  A    between atoms: _531  and  _532
REMARK  217  A    between atoms: _532  and  _533
REMARK  218  A    between atoms: _533  and  _534
REMARK  219  A    between atoms: _543  and  _545
REMARK  220  A    between atoms: _545  and  _546
REMARK  221  A    between atoms: _545  and  _548
REMARK  222  A    between atoms: _548  and  _549
REMARK  223  A    between atoms: _549  and  _550
REMARK  224  A    between atoms: _553  and  _555
REMARK  225  A    between atoms: _555  and  _556
REMARK  226  A    between atoms: _555  and  _558
REMARK  227  A    between atoms: _558  and  _559
REMARK  228  A    between atoms: _559  and  _560
REMARK  229  A    between atoms: _563  and  _564
REMARK  230  A    between atoms: _569  and  _571
REMARK  231  A    between atoms: _571  and  _572
REMARK  232  A    between atoms: _571  and  _574
REMARK  233  A    between atoms: _574  and  _575
REMARK  234  A    between atoms: _575  and  _576
REMARK  235  A    between atoms: _578  and  _580
REMARK  236  A    between atoms: _580  and  _581
REMARK  237  A    between atoms: _583  and  _585
REMARK  238  A    between atoms: _585  and  _586
REMARK  239  A    between atoms: _585  and  _588
REMARK  240  A    between atoms: _591  and  _593
REMARK  241  A    between atoms: _593  and  _594
REMARK  242  A    between atoms: _593  and  _596
REMARK  243  A    between atoms: _596  and  _597
REMARK  244  A    between atoms: _607  and  _609
REMARK  245  A    between atoms: _609  and  _610
REMARK  246  A    between atoms: _609  and  _612
REMARK  247  A    between atoms: _612  and  _613
REMARK  248  A    between atoms: _613  and  _614
REMARK  249  A    between atoms: _618  and  _619
REMARK  250  A    between atoms: _624  and  _626
REMARK  251  A    between atoms: _626  and  _627
REMARK  252  A    between atoms: _626  and  _629
REMARK  253  A    between atoms: _629  and  _630
REMARK  254  A    between atoms: _633  and  _635
REMARK  255  A    between atoms: _635  and  _636
REMARK  256  A    between atoms: _635  and  _638
REMARK  257  A    between atoms: _638  and  _639
REMARK  258  A    between atoms: _644  and  _646
REMARK  259  A    between atoms: _646  and  _647
REMARK  260  A    between atoms: _646  and  _649
REMARK  261  A    between atoms: _649  and  _650
REMARK                            x       y       z     vdW  Elec       q    Type
REMARK                         _______ _______ _______ _____ _____    ______ ____
ROOT
ATOM      1  O   HOH     1      17.358  -1.747  20.602  0.00  0.00    +0.000 OA
ENDROOT
TORSDOF 0
REMARK  Name = ../refined-set-2016/2zym/2zym_pocket.pdb
REMARK  261 active torsions:
REMARK  status: ('A' for Active; 'I' for Inactive)
REMARK    1  A    between atoms: _1  and  _3
REMARK    2  A    between atoms: _3  and  _4
REMARK    3  A    between atoms: _3  and  _6
REMARK    4  A    between atoms: _6  and  _7
REMARK    5  A    between atoms: _7  and  _8
REMARK    6  A    between atoms: _11  and  _13
REMARK    7  A    between atoms: _13  and  _14
REMARK    8  A    between atoms: _13  and  _16
REMARK    9  A    between atoms: _16  and  _17
REMARK   10  A    between atoms: _22  and  _24
REMARK   11  A    between atoms: _24  and  _25
REMARK   12  A    between atoms: _28  and  _30
REMARK   13  A    between atoms: _30  and  _31
REMARK   14  A    between atoms: _30  and  _33
REMARK   15  A    between atoms: _33  and  _34
REMARK   16  A    between atoms: _37  and  _39
REMARK   17  A    between atoms: _39  and  _40
REMARK   18  A    between atoms: _39  and  _42
REMARK   19  A    between atoms: _42  and  _43
REMARK   20  A    between atoms: _43  and  _44
REMARK   21  A    between atoms: _49  and  _51
REMARK   22  A    between atoms: _51  and  _52
REMARK   23  A    between atoms: _51  and  _54
REMARK   24  A    between atoms: _57  and  _59
REMARK   25  A    between atoms: _59  and  _60
REMARK   26  A    between atoms: _63  and  _65
REMARK   27  A    between atoms: _65  and  _66
REMARK   28  A    between atoms: _65  and  _68
REMARK   29  A    between atoms: _68  and  _69
REMARK   30  A    between atoms: _72  and  _74
REMARK   31  A    between atoms: _74  and  _75
REMARK   32  A    between atoms: _74  and  _77
REMARK   33  A    between atoms: _77  and  _78
REMARK   34  A    between atoms: _81  and  _83
REMARK   35  A    between atoms: _83  and  _84
REMARK   36  A    between atoms: _83  and  _86
REMARK   37  A    between atoms: _86  and  _87
REMARK   38  A    between atoms: _87  and  _88
REMARK   39  A    between atoms: _88  and  _89
REMARK   40  A    between atoms: _89  and  _90
REMARK   41  A    between atoms: _94  and  _96
REMARK   42  A    between atoms: _96  and  _97
REMARK   43  A    between atoms: _96  and  _99
REMARK   44  A    between atoms: _99  and  _100
REMARK   45  A    between atoms: _100  and  _101
REMARK   46  A    between atoms: _106  and  _108
REMARK   47  A    between atoms: _108  and  _109
REMARK   48  A    between atoms: _108  and  _111
REMARK   49  A    between atoms: _111  and  _112
REMARK   50  A    between atoms: _112  and  _113
REMARK   51  A    between atoms: _118  and  _120
REMARK   52  A    between atoms: _120  and  _121
REMARK   53  A    between atoms: _120  and  _123
REMARK   54  A    between atoms: _123  and  _124
REMARK   55  A    between atoms: _124  and  _125
REMARK   56  A    between atoms: _128  and  _130
REMARK   57  A    between atoms: _130  and  _131
REMARK   58  A    between atoms: _130  and  _133
REMARK   59  A    between atoms: _133  and  _134
REMARK   60  A    between atoms: _134  and  _135
REMARK   61  A    between atoms: _135  and  _136
REMARK   62  A    between atoms: _136  and  _137
REMARK   63  A    between atoms: _141  and  _143
REMARK   64  A    between atoms: _143  and  _144
REMARK   65  A    between atoms: _143  and  _146
REMARK   66  A    between atoms: _146  and  _147
REMARK   67  A    between atoms: _150  and  _152
REMARK   68  A    between atoms: _152  and  _153
REMARK   69  A    between atoms: _152  and  _155
REMARK   70  A    between atoms: _155  and  _156
REMARK   71  A    between atoms: _167  and  _168
REMARK   72  A    between atoms: _173  and  _175
REMARK   73  A    between atoms: _175  and  _176
REMARK   74  A    between atoms: _175  and  _178
REMARK   75  A    between atoms: _178  and  _179
REMARK   76  A    between atoms: _184  and  _186
REMARK   77  A    between atoms: _186  and  _187
REMARK   78  A    between atoms: _186  and  _189
REMARK   79  A    between atoms: _189  and  _190
REMARK   80  A    between atoms: _193  and  _195
REMARK   81  A    between atoms: _195  and  _196
REMARK   82  A    between atoms: _195  and  _198
REMARK   83  A    between atoms: _198  and  _199
REMARK   84  A    between atoms: _199  and  _200
REMARK   85  A    between atoms: _200  and  _201
REMARK   86  A    between atoms: _210  and  _212
REMARK   87  A    between atoms: _212  and  _213
REMARK   88  A    between atoms: _212  and  _215
REMARK   89  A    between atoms: _215  and  _216
REMARK   90  A    between atoms: _219  and  _221
REMARK   91  A    between atoms: _221  and  _222
REMARK   92  A    between atoms: _221  and  _224
REMARK   93  A    between atoms: _224  and  _225
REMARK   94  A    between atoms: _225  and  _226
REMARK   95  A    between atoms: _229  and  _231
REMARK   96  A    between atoms: _231  and  _232
REMARK   97  A    between atoms: _231  and  _234
REMARK   98  A    between atoms: _234  and  _235
REMARK   99  A    between atoms: _235  and  _236
REMARK  100  A    between atoms: _236  and  _237
REMARK  101  A    between atoms: _237  and  _238
REMARK  102  A    between atoms: _242  and  _244
REMARK  103  A    between atoms: _244  and  _245
REMARK  104  A    between atoms: _248  and  _250
REMARK  105  A    between atoms: _250  and  _251
REMARK  106  A    between atoms: _250  and  _253
REMARK  107  A    between atoms: _253  and  _254
REMARK  108  A    between atoms: _254  and  _255
REMARK  109  A    between atoms: _258  and  _260
REMARK  110  A    between atoms: _260  and  _261
REMARK  111  A    between atoms: _260  and  _263
REMARK  112  A    between atoms: _263  and  _264
REMARK  113  A    between atoms: _266  and  _268
REMARK  114  A    between atoms: _268  and  _269
REMARK  115  A    between atoms: _268  and  _271
REMARK  116  A    between atoms: _274  and  _276
REMARK  117  A    between atoms: _276  and  _277
REMARK  118  A    between atoms: _276  and  _279
REMARK  119  A    between atoms: _279  and  _280
REMARK  120  A    between atoms: _280  and  _281
REMARK  121  A    between atoms: _284  and  _286
REMARK  122  A    between atoms: _286  and  _287
REMARK  123  A    between atoms: _286  and  _289
REMARK  124  A    between atoms: _289  and  _290
REMARK  125  A    between atoms: _295  and  _297
REMARK  126  A    between atoms: _297  and  _298
REMARK  127  A    between atoms: _297  and  _300
REMARK  128  A    between atoms: _300  and  _301
REMARK  129  A    between atoms: _306  and  _308
REMARK  130  A    between atoms: _308  and  _309
REMARK  131  A    between atoms: _308  and  _311
REMARK  132  A    between atoms: _311  and  _312
REMARK  133  A    between atoms: _318  and  _320
REMARK  134  A    between atoms: _320  and  _321
REMARK  135  A    between atoms: _320  and  _323
REMARK  136  A    between atoms: _323  and  _324
REMARK  137  A    between atoms: _329  and  _330
REMARK  138  A    between atoms: _332  and  _334
REMARK  139  A    between atoms: _334  and  _335
REMARK  140  A    between atoms: _334  and  _337
REMARK  141  A    between atoms: _337  and  _338
REMARK  142  A    between atoms: _343  and  _344
REMARK  143  A    between atoms: _346  and  _348
REMARK  144  A    between atoms: _348  and  _349
REMARK  145  A    between atoms: _348  and  _351
REMARK  146  A    between atoms: _351  and  _352
REMARK  147  A    between atoms: _355  and  _357
REMARK  148  A    between atoms: _357  and  _358
REMARK  149  A    between atoms: _357  and  _360
REMARK  150  A    between atoms: _360  and  _361
REMARK  151  A    between atoms: _364  and  _366
REMARK  152  A    between atoms: _366  and  _367
REMARK  153  A    between atoms: _366  and  _369
REMARK  154  A    between atoms: _369  and  _370
REMARK  155  A    between atoms: _370  and  _371
REMARK  156  A    between atoms: _371  and  _372
REMARK  157  A    between atoms: _372  and  _373
REMARK  158  A    between atoms: _377  and  _379
REMARK  159  A    between atoms: _379  and  _380
REMARK  160  A    between atoms: _383  and  _385
REMARK  161  A    between atoms: _385  and  _386
REMARK  162  A    between atoms: _385  and  _388
REMARK  163  A    between atoms: _388  and  _389
REMARK  164  A    between atoms: _392  and  _394
REMARK  165  A    between atoms: _394  and  _395
REMARK  166  A    between atoms: _394  and  _397
REMARK  167  A    between atoms: _397  and  _398
REMARK  168  A    between atoms: _401  and  _403
REMARK  169  A    between atoms: _403  and  _404
REMARK  170  A    between atoms: _403  and  _406
REMARK  171  A    between atoms: _409  and  _411
REMARK  172  A    between atoms: _411  and  _412
REMARK  173  A    between atoms: _411  and  _414
REMARK  174  A    between atoms: _414  and  _415
REMARK  175  A    between atoms: _420  and  _422
REMARK  176  A    between atoms: _422  and  _423
REMARK  177  A    between atoms: _422  and  _425
REMARK  178  A    between atoms: _425  and  _426
REMARK  179  A    between atoms: _431  and  _433
REMARK  180  A    between atoms: _433  and  _434
REMARK  181  A    between atoms: _437  and  _438
REMARK  182  A    between atoms: _443  and  _445
REMARK  183  A    between atoms: _445  and  _446
REMARK  184  A    between atoms: _445  and  _448
REMARK  185  A    between atoms: _448  and  _449
REMARK  186  A    between atoms: _459  and  _461
REMARK  187  A    between atoms: _461  and  _462
REMARK  188  A    between atoms: _465  and  _467
REMARK  189  A    between atoms: _467  and  _468
REMARK  190  A    between atoms: _467  and  _470
REMARK  191  A    between atoms: _470  and  _471
REMARK  192  A    between atoms: _476  and  _477
REMARK  193  A    between atoms: _479  and  _481
REMARK  194  A    between atoms: _481  and  _482
REMARK  195  A    between atoms: _481  and  _484
REMARK  196  A    between atoms: _484  and  _485
REMARK  197  A    between atoms: _491  and  _493
REMARK  198  A    between atoms: _493  and  _494
REMARK  199  A    between atoms: _493  and  _496
REMARK  200  A    between atoms: _496  and  _497
REMARK  201  A    between atoms: _500  and  _502
REMARK  202  A    between atoms: _502  and  _503
REMARK  203  A    between atoms: _505  and  _507
REMARK  204  A    between atoms: _507  and  _508
REMARK  205  A    between atoms: _507  and  _510
REMARK  206  A    between atoms: _513  and  _515
REMARK  207  A    between atoms: _515  and  _516
REMARK  208  A    between atoms: _515  and  _518
REMARK  209  A    between atoms: _518  and  _519
REMARK  210  A    between atoms: _519  and  _520
REMARK  211  A    between atoms: _520  and  _521
REMARK  212  A    between atoms: _521  and  _522
REMARK  213  A    between atoms: _526  and  _528
REMARK  214  A    between atoms: _528  and  _529
REMARK  215  A    between atoms: _528  and  _531
REMARK  216  A    between atoms: _531  and  _532
REMARK  217  A    between atoms: _532  and  _533
REMARK  218  A    between atoms: _533  and  _534
REMARK  219  A    between atoms: _543  and  _545
REMARK  220  A    between atoms: _545  and  _546
REMARK  221  A    between atoms: _545  and  _548
REMARK  222  A    between atoms: _548  and  _549
REMARK  223  A    between atoms: _549  and  _550
REMARK  224  A    between atoms: _553  and  _555
REMARK  225  A    between atoms: _555  and  _556
REMARK  226  A    between atoms: _555  and  _558
REMARK  227  A    between atoms: _558  and  _559
REMARK  228  A    between atoms: _559  and  _560
REMARK  229  A    between atoms: _563  and  _564
REMARK  230  A    between atoms: _569  and  _571
REMARK  231  A    between atoms: _571  and  _572
REMARK  232  A    between atoms: _571  and  _574
REMARK  233  A    between atoms: _574  and  _575
REMARK  234  A    between atoms: _575  and  _576
REMARK  235  A    between atoms: _578  and  _580
REMARK  236  A    between atoms: _580  and  _581
REMARK  237  A    between atoms: _583  and  _585
REMARK  238  A    between atoms: _585  and  _586
REMARK  239  A    between atoms: _585  and  _588
REMARK  240  A    between atoms: _591  and  _593
REMARK  241  A    between atoms: _593  and  _594
REMARK  242  A    between atoms: _593  and  _596
REMARK  243  A    between atoms: _596  and  _597
REMARK  244  A    between atoms: _607  and  _609
REMARK  245  A    between atoms: _609  and  _610
REMARK  246  A    between atoms: _609  and  _612
REMARK  247  A    between atoms: _612  and  _613
REMARK  248  A    between atoms: _613  and  _614
REMARK  249  A    between atoms: _618  and  _619
REMARK  250  A    between atoms: _624  and  _626
REMARK  251  A    between atoms: _626  and  _627
REMARK  252  A    between atoms: _626  and  _629
REMARK  253  A    between atoms: _629  and  _630
REMARK  254  A    between atoms: _633  and  _635
REMARK  255  A    between atoms: _635  and  _636
REMARK  256  A    between atoms: _635  and  _638
REMARK  257  A    between atoms: _638  and  _639
REMARK  258  A    between atoms: _644  and  _646
REMARK  259  A    between atoms: _646  and  _647
REMARK  260  A    between atoms: _646  and  _649
REMARK  261  A    between atoms: _649  and  _650
REMARK                            x       y       z     vdW  Elec       q    Type
REMARK                         _______ _______ _______ _____ _____    ______ ____
ROOT
ATOM      1  O   HOH     1      27.594  11.326  19.323  0.00  0.00    +0.000 OA
ENDROOT
TORSDOF 0
REMARK  Name = ../refined-set-2016/2zym/2zym_pocket.pdb
REMARK  261 active torsions:
REMARK  status: ('A' for Active; 'I' for Inactive)
REMARK    1  A    between atoms: _1  and  _3
REMARK    2  A    between atoms: _3  and  _4
REMARK    3  A    between atoms: _3  and  _6
REMARK    4  A    between atoms: _6  and  _7
REMARK    5  A    between atoms: _7  and  _8
REMARK    6  A    between atoms: _11  and  _13
REMARK    7  A    between atoms: _13  and  _14
REMARK    8  A    between atoms: _13  and  _16
REMARK    9  A    between atoms: _16  and  _17
REMARK   10  A    between atoms: _22  and  _24
REMARK   11  A    between atoms: _24  and  _25
REMARK   12  A    between atoms: _28  and  _30
REMARK   13  A    between atoms: _30  and  _31
REMARK   14  A    between atoms: _30  and  _33
REMARK   15  A    between atoms: _33  and  _34
REMARK   16  A    between atoms: _37  and  _39
REMARK   17  A    between atoms: _39  and  _40
REMARK   18  A    between atoms: _39  and  _42
REMARK   19  A    between atoms: _42  and  _43
REMARK   20  A    between atoms: _43  and  _44
REMARK   21  A    between atoms: _49  and  _51
REMARK   22  A    between atoms: _51  and  _52
REMARK   23  A    between atoms: _51  and  _54
REMARK   24  A    between atoms: _57  and  _59
REMARK   25  A    between atoms: _59  and  _60
REMARK   26  A    between atoms: _63  and  _65
REMARK   27  A    between atoms: _65  and  _66
REMARK   28  A    between atoms: _65  and  _68
REMARK   29  A    between atoms: _68  and  _69
REMARK   30  A    between atoms: _72  and  _74
REMARK   31  A    between atoms: _74  and  _75
REMARK   32  A    between atoms: _74  and  _77
REMARK   33  A    between atoms: _77  and  _78
REMARK   34  A    between atoms: _81  and  _83
REMARK   35  A    between atoms: _83  and  _84
REMARK   36  A    between atoms: _83  and  _86
REMARK   37  A    between atoms: _86  and  _87
REMARK   38  A    between atoms: _87  and  _88
REMARK   39  A    between atoms: _88  and  _89
REMARK   40  A    between atoms: _89  and  _90
REMARK   41  A    between atoms: _94  and  _96
REMARK   42  A    between atoms: _96  and  _97
REMARK   43  A    between atoms: _96  and  _99
REMARK   44  A    between atoms: _99  and  _100
REMARK   45  A    between atoms: _100  and  _101
REMARK   46  A    between atoms: _106  and  _108
REMARK   47  A    between atoms: _108  and  _109
REMARK   48  A    between atoms: _108  and  _111
REMARK   49  A    between atoms: _111  and  _112
REMARK   50  A    between atoms: _112  and  _113
REMARK   51  A    between atoms: _118  and  _120
REMARK   52  A    between atoms: _120  and  _121
REMARK   53  A    between atoms: _120  and  _123
REMARK   54  A    between atoms: _123  and  _124
REMARK   55  A    between atoms: _124  and  _125
REMARK   56  A    between atoms: _128  and  _130
REMARK   57  A    between atoms: _130  and  _131
REMARK   58  A    between atoms: _130  and  _133
REMARK   59  A    between atoms: _133  and  _134
REMARK   60  A    between atoms: _134  and  _135
REMARK   61  A    between atoms: _135  and  _136
REMARK   62  A    between atoms: _136  and  _137
REMARK   63  A    between atoms: _141  and  _143
REMARK   64  A    between atoms: _143  and  _144
REMARK   65  A    between atoms: _143  and  _146
REMARK   66  A    between atoms: _146  and  _147
REMARK   67  A    between atoms: _150  and  _152
REMARK   68  A    between atoms: _152  and  _153
REMARK   69  A    between atoms: _152  and  _155
REMARK   70  A    between atoms: _155  and  _156
REMARK   71  A    between atoms: _167  and  _168
REMARK   72  A    between atoms: _173  and  _175
REMARK   73  A    between atoms: _175  and  _176
REMARK   74  A    between atoms: _175  and  _178
REMARK   75  A    between atoms: _178  and  _179
REMARK   76  A    between atoms: _184  and  _186
REMARK   77  A    between atoms: _186  and  _187
REMARK   78  A    between atoms: _186  and  _189
REMARK   79  A    between atoms: _189  and  _190
REMARK   80  A    between atoms: _193  and  _195
REMARK   81  A    between atoms: _195  and  _196
REMARK   82  A    between atoms: _195  and  _198
REMARK   83  A    between atoms: _198  and  _199
REMARK   84  A    between atoms: _199  and  _200
REMARK   85  A    between atoms: _200  and  _201
REMARK   86  A    between atoms: _210  and  _212
REMARK   87  A    between atoms: _212  and  _213
REMARK   88  A    between atoms: _212  and  _215
REMARK   89  A    between atoms: _215  and  _216
REMARK   90  A    between atoms: _219  and  _221
REMARK   91  A    between atoms: _221  and  _222
REMARK   92  A    between atoms: _221  and  _224
REMARK   93  A    between atoms: _224  and  _225
REMARK   94  A    between atoms: _225  and  _226
REMARK   95  A    between atoms: _229  and  _231
REMARK   96  A    between atoms: _231  and  _232
REMARK   97  A    between atoms: _231  and  _234
REMARK   98  A    between atoms: _234  and  _235
REMARK   99  A    between atoms: _235  and  _236
REMARK  100  A    between atoms: _236  and  _237
REMARK  101  A    between atoms: _237  and  _238
REMARK  102  A    between atoms: _242  and  _244
REMARK  103  A    between atoms: _244  and  _245
REMARK  104  A    between atoms: _248  and  _250
REMARK  105  A    between atoms: _250  and  _251
REMARK  106  A    between atoms: _250  and  _253
REMARK  107  A    between atoms: _253  and  _254
REMARK  108  A    between atoms: _254  and  _255
REMARK  109  A    between atoms: _258  and  _260
REMARK  110  A    between atoms: _260  and  _261
REMARK  111  A    between atoms: _260  and  _263
REMARK  112  A    between atoms: _263  and  _264
REMARK  113  A    between atoms: _266  and  _268
REMARK  114  A    between atoms: _268  and  _269
REMARK  115  A    between atoms: _268  and  _271
REMARK  116  A    between atoms: _274  and  _276
REMARK  117  A    between atoms: _276  and  _277
REMARK  118  A    between atoms: _276  and  _279
REMARK  119  A    between atoms: _279  and  _280
REMARK  120  A    between atoms: _280  and  _281
REMARK  121  A    between atoms: _284  and  _286
REMARK  122  A    between atoms: _286  and  _287
REMARK  123  A    between atoms: _286  and  _289
REMARK  124  A    between atoms: _289  and  _290
REMARK  125  A    between atoms: _295  and  _297
REMARK  126  A    between atoms: _297  and  _298
REMARK  127  A    between atoms: _297  and  _300
REMARK  128  A    between atoms: _300  and  _301
REMARK  129  A    between atoms: _306  and  _308
REMARK  130  A    between atoms: _308  and  _309
REMARK  131  A    between atoms: _308  and  _311
REMARK  132  A    between atoms: _311  and  _312
REMARK  133  A    between atoms: _318  and  _320
REMARK  134  A    between atoms: _320  and  _321
REMARK  135  A    between atoms: _320  and  _323
REMARK  136  A    between atoms: _323  and  _324
REMARK  137  A    between atoms: _329  and  _330
REMARK  138  A    between atoms: _332  and  _334
REMARK  139  A    between atoms: _334  and  _335
REMARK  140  A    between atoms: _334  and  _337
REMARK  141  A    between atoms: _337  and  _338
REMARK  142  A    between atoms: _343  and  _344
REMARK  143  A    between atoms: _346  and  _348
REMARK  144  A    between atoms: _348  and  _349
REMARK  145  A    between atoms: _348  and  _351
REMARK  146  A    between atoms: _351  and  _352
REMARK  147  A    between atoms: _355  and  _357
REMARK  148  A    between atoms: _357  and  _358
REMARK  149  A    between atoms: _357  and  _360
REMARK  150  A    between atoms: _360  and  _361
REMARK  151  A    between atoms: _364  and  _366
REMARK  152  A    between atoms: _366  and  _367
REMARK  153  A    between atoms: _366  and  _369
REMARK  154  A    between atoms: _369  and  _370
REMARK  155  A    between atoms: _370  and  _371
REMARK  156  A    between atoms: _371  and  _372
REMARK  157  A    between atoms: _372  and  _373
REMARK  158  A    between atoms: _377  and  _379
REMARK  159  A    between atoms: _379  and  _380
REMARK  160  A    between atoms: _383  and  _385
REMARK  161  A    between atoms: _385  and  _386
REMARK  162  A    between atoms: _385  and  _388
REMARK  163  A    between atoms: _388  and  _389
REMARK  164  A    between atoms: _392  and  _394
REMARK  165  A    between atoms: _394  and  _395
REMARK  166  A    between atoms: _394  and  _397
REMARK  167  A    between atoms: _397  and  _398
REMARK  168  A    between atoms: _401  and  _403
REMARK  169  A    between atoms: _403  and  _404
REMARK  170  A    between atoms: _403  and  _406
REMARK  171  A    between atoms: _409  and  _411
REMARK  172  A    between atoms: _411  and  _412
REMARK  173  A    between atoms: _411  and  _414
REMARK  174  A    between atoms: _414  and  _415
REMARK  175  A    between atoms: _420  and  _422
REMARK  176  A    between atoms: _422  and  _423
REMARK  177  A    between atoms: _422  and  _425
REMARK  178  A    between atoms: _425  and  _426
REMARK  179  A    between atoms: _431  and  _433
REMARK  180  A    between atoms: _433  and  _434
REMARK  181  A    between atoms: _437  and  _438
REMARK  182  A    between atoms: _443  and  _445
REMARK  183  A    between atoms: _445  and  _446
REMARK  184  A    between atoms: _445  and  _448
REMARK  185  A    between atoms: _448  and  _449
REMARK  186  A    between atoms: _459  and  _461
REMARK  187  A    between atoms: _461  and  _462
REMARK  188  A    between atoms: _465  and  _467
REMARK  189  A    between atoms: _467  and  _468
REMARK  190  A    between atoms: _467  and  _470
REMARK  191  A    between atoms: _470  and  _471
REMARK  192  A    between atoms: _476  and  _477
REMARK  193  A    between atoms: _479  and  _481
REMARK  194  A    between atoms: _481  and  _482
REMARK  195  A    between atoms: _481  and  _484
REMARK  196  A    between atoms: _484  and  _485
REMARK  197  A    between atoms: _491  and  _493
REMARK  198  A    between atoms: _493  and  _494
REMARK  199  A    between atoms: _493  and  _496
REMARK  200  A    between atoms: _496  and  _497
REMARK  201  A    between atoms: _500  and  _502
REMARK  202  A    between atoms: _502  and  _503
REMARK  203  A    between atoms: _505  and  _507
REMARK  204  A    between atoms: _507  and  _508
REMARK  205  A    between atoms: _507  and  _510
REMARK  206  A    between atoms: _513  and  _515
REMARK  207  A    between atoms: _515  and  _516
REMARK  208  A    between atoms: _515  and  _518
REMARK  209  A    between atoms: _518  and  _519
REMARK  210  A    between atoms: _519  and  _520
REMARK  211  A    between atoms: _520  and  _521
REMARK  212  A    between atoms: _521  and  _522
REMARK  213  A    between atoms: _526  and  _528
REMARK  214  A    between atoms: _528  and  _529
REMARK  215  A    between atoms: _528  and  _531
REMARK  216  A    between atoms: _531  and  _532
REMARK  217  A    between atoms: _532  and  _533
REMARK  218  A    between atoms: _533  and  _534
REMARK  219  A    between atoms: _543  and  _545
REMARK  220  A    between atoms: _545  and  _546
REMARK  221  A    between atoms: _545  and  _548
REMARK  222  A    between atoms: _548  and  _549
REMARK  223  A    between atoms: _549  and  _550
REMARK  224  A    between atoms: _553  and  _555
REMARK  225  A    between atoms: _555  and  _556
REMARK  226  A    between atoms: _555  and  _558
REMARK  227  A    between atoms: _558  and  _559
REMARK  228  A    between atoms: _559  and  _560
REMARK  229  A    between atoms: _563  and  _564
REMARK  230  A    between atoms: _569  and  _571
REMARK  231  A    between atoms: _571  and  _572
REMARK  232  A    between atoms: _571  and  _574
REMARK  233  A    between atoms: _574  and  _575
REMARK  234  A    between atoms: _575  and  _576
REMARK  235  A    between atoms: _578  and  _580
REMARK  236  A    between atoms: _580  and  _581
REMARK  237  A    between atoms: _583  and  _585
REMARK  238  A    between atoms: _585  and  _586
REMARK  239  A    between atoms: _585  and  _588
REMARK  240  A    between atoms: _591  and  _593
REMARK  241  A    between atoms: _593  and  _594
REMARK  242  A    between atoms: _593  and  _596
REMARK  243  A    between atoms: _596  and  _597
REMARK  244  A    between atoms: _607  and  _609
REMARK  245  A    between atoms: _609  and  _610
REMARK  246  A    between atoms: _609  and  _612
REMARK  247  A    between atoms: _612  and  _613
REMARK  248  A    between atoms: _613  and  _614
REMARK  249  A    between atoms: _618  and  _619
REMARK  250  A    between atoms: _624  and  _626
REMARK  251  A    between atoms: _626  and  _627
REMARK  252  A    between atoms: _626  and  _629
REMARK  253  A    between atoms: _629  and  _630
REMARK  254  A    between atoms: _633  and  _635
REMARK  255  A    between atoms: _635  and  _636
REMARK  256  A    between atoms: _635  and  _638
REMARK  257  A    between atoms: _638  and  _639
REMARK  258  A    between atoms: _644  and  _646
REMARK  259  A    between atoms: _646  and  _647
REMARK  260  A    between atoms: _646  and  _649
REMARK  261  A    between atoms: _649  and  _650
REMARK                            x       y       z     vdW  Elec       q    Type
REMARK                         _______ _______ _______ _____ _____    ______ ____
ROOT
ATOM      1  O   HOH     1      27.593   5.814   7.607  0.00  0.00    +0.000 OA
ENDROOT
TORSDOF 0
REMARK  Name = ../refined-set-2016/2zym/2zym_pocket.pdb
REMARK  261 active torsions:
REMARK  status: ('A' for Active; 'I' for Inactive)
REMARK    1  A    between atoms: _1  and  _3
REMARK    2  A    between atoms: _3  and  _4
REMARK    3  A    between atoms: _3  and  _6
REMARK    4  A    between atoms: _6  and  _7
REMARK    5  A    between atoms: _7  and  _8
REMARK    6  A    between atoms: _11  and  _13
REMARK    7  A    between atoms: _13  and  _14
REMARK    8  A    between atoms: _13  and  _16
REMARK    9  A    between atoms: _16  and  _17
REMARK   10  A    between atoms: _22  and  _24
REMARK   11  A    between atoms: _24  and  _25
REMARK   12  A    between atoms: _28  and  _30
REMARK   13  A    between atoms: _30  and  _31
REMARK   14  A    between atoms: _30  and  _33
REMARK   15  A    between atoms: _33  and  _34
REMARK   16  A    between atoms: _37  and  _39
REMARK   17  A    between atoms: _39  and  _40
REMARK   18  A    between atoms: _39  and  _42
REMARK   19  A    between atoms: _42  and  _43
REMARK   20  A    between atoms: _43  and  _44
REMARK   21  A    between atoms: _49  and  _51
REMARK   22  A    between atoms: _51  and  _52
REMARK   23  A    between atoms: _51  and  _54
REMARK   24  A    between atoms: _57  and  _59
REMARK   25  A    between atoms: _59  and  _60
REMARK   26  A    between atoms: _63  and  _65
REMARK   27  A    between atoms: _65  and  _66
REMARK   28  A    between atoms: _65  and  _68
REMARK   29  A    between atoms: _68  and  _69
REMARK   30  A    between atoms: _72  and  _74
REMARK   31  A    between atoms: _74  and  _75
REMARK   32  A    between atoms: _74  and  _77
REMARK   33  A    between atoms: _77  and  _78
REMARK   34  A    between atoms: _81  and  _83
REMARK   35  A    between atoms: _83  and  _84
REMARK   36  A    between atoms: _83  and  _86
REMARK   37  A    between atoms: _86  and  _87
REMARK   38  A    between atoms: _87  and  _88
REMARK   39  A    between atoms: _88  and  _89
REMARK   40  A    between atoms: _89  and  _90
REMARK   41  A    between atoms: _94  and  _96
REMARK   42  A    between atoms: _96  and  _97
REMARK   43  A    between atoms: _96  and  _99
REMARK   44  A    between atoms: _99  and  _100
REMARK   45  A    between atoms: _100  and  _101
REMARK   46  A    between atoms: _106  and  _108
REMARK   47  A    between atoms: _108  and  _109
REMARK   48  A    between atoms: _108  and  _111
REMARK   49  A    between atoms: _111  and  _112
REMARK   50  A    between atoms: _112  and  _113
REMARK   51  A    between atoms: _118  and  _120
REMARK   52  A    between atoms: _120  and  _121
REMARK   53  A    between atoms: _120  and  _123
REMARK   54  A    between atoms: _123  and  _124
REMARK   55  A    between atoms: _124  and  _125
REMARK   56  A    between atoms: _128  and  _130
REMARK   57  A    between atoms: _130  and  _131
REMARK   58  A    between atoms: _130  and  _133
REMARK   59  A    between atoms: _133  and  _134
REMARK   60  A    between atoms: _134  and  _135
REMARK   61  A    between atoms: _135  and  _136
REMARK   62  A    between atoms: _136  and  _137
REMARK   63  A    between atoms: _141  and  _143
REMARK   64  A    between atoms: _143  and  _144
REMARK   65  A    between atoms: _143  and  _146
REMARK   66  A    between atoms: _146  and  _147
REMARK   67  A    between atoms: _150  and  _152
REMARK   68  A    between atoms: _152  and  _153
REMARK   69  A    between atoms: _152  and  _155
REMARK   70  A    between atoms: _155  and  _156
REMARK   71  A    between atoms: _167  and  _168
REMARK   72  A    between atoms: _173  and  _175
REMARK   73  A    between atoms: _175  and  _176
REMARK   74  A    between atoms: _175  and  _178
REMARK   75  A    between atoms: _178  and  _179
REMARK   76  A    between atoms: _184  and  _186
REMARK   77  A    between atoms: _186  and  _187
REMARK   78  A    between atoms: _186  and  _189
REMARK   79  A    between atoms: _189  and  _190
REMARK   80  A    between atoms: _193  and  _195
REMARK   81  A    between atoms: _195  and  _196
REMARK   82  A    between atoms: _195  and  _198
REMARK   83  A    between atoms: _198  and  _199
REMARK   84  A    between atoms: _199  and  _200
REMARK   85  A    between atoms: _200  and  _201
REMARK   86  A    between atoms: _210  and  _212
REMARK   87  A    between atoms: _212  and  _213
REMARK   88  A    between atoms: _212  and  _215
REMARK   89  A    between atoms: _215  and  _216
REMARK   90  A    between atoms: _219  and  _221
REMARK   91  A    between atoms: _221  and  _222
REMARK   92  A    between atoms: _221  and  _224
REMARK   93  A    between atoms: _224  and  _225
REMARK   94  A    between atoms: _225  and  _226
REMARK   95  A    between atoms: _229  and  _231
REMARK   96  A    between atoms: _231  and  _232
REMARK   97  A    between atoms: _231  and  _234
REMARK   98  A    between atoms: _234  and  _235
REMARK   99  A    between atoms: _235  and  _236
REMARK  100  A    between atoms: _236  and  _237
REMARK  101  A    between atoms: _237  and  _238
REMARK  102  A    between atoms: _242  and  _244
REMARK  103  A    between atoms: _244  and  _245
REMARK  104  A    between atoms: _248  and  _250
REMARK  105  A    between atoms: _250  and  _251
REMARK  106  A    between atoms: _250  and  _253
REMARK  107  A    between atoms: _253  and  _254
REMARK  108  A    between atoms: _254  and  _255
REMARK  109  A    between atoms: _258  and  _260
REMARK  110  A    between atoms: _260  and  _261
REMARK  111  A    between atoms: _260  and  _263
REMARK  112  A    between atoms: _263  and  _264
REMARK  113  A    between atoms: _266  and  _268
REMARK  114  A    between atoms: _268  and  _269
REMARK  115  A    between atoms: _268  and  _271
REMARK  116  A    between atoms: _274  and  _276
REMARK  117  A    between atoms: _276  and  _277
REMARK  118  A    between atoms: _276  and  _279
REMARK  119  A    between atoms: _279  and  _280
REMARK  120  A    between atoms: _280  and  _281
REMARK  121  A    between atoms: _284  and  _286
REMARK  122  A    between atoms: _286  and  _287
REMARK  123  A    between atoms: _286  and  _289
REMARK  124  A    between atoms: _289  and  _290
REMARK  125  A    between atoms: _295  and  _297
REMARK  126  A    between atoms: _297  and  _298
REMARK  127  A    between atoms: _297  and  _300
REMARK  128  A    between atoms: _300  and  _301
REMARK  129  A    between atoms: _306  and  _308
REMARK  130  A    between atoms: _308  and  _309
REMARK  131  A    between atoms: _308  and  _311
REMARK  132  A    between atoms: _311  and  _312
REMARK  133  A    between atoms: _318  and  _320
REMARK  134  A    between atoms: _320  and  _321
REMARK  135  A    between atoms: _320  and  _323
REMARK  136  A    between atoms: _323  and  _324
REMARK  137  A    between atoms: _329  and  _330
REMARK  138  A    between atoms: _332  and  _334
REMARK  139  A    between atoms: _334  and  _335
REMARK  140  A    between atoms: _334  and  _337
REMARK  141  A    between atoms: _337  and  _338
REMARK  142  A    between atoms: _343  and  _344
REMARK  143  A    between atoms: _346  and  _348
REMARK  144  A    between atoms: _348  and  _349
REMARK  145  A    between atoms: _348  and  _351
REMARK  146  A    between atoms: _351  and  _352
REMARK  147  A    between atoms: _355  and  _357
REMARK  148  A    between atoms: _357  and  _358
REMARK  149  A    between atoms: _357  and  _360
REMARK  150  A    between atoms: _360  and  _361
REMARK  151  A    between atoms: _364  and  _366
REMARK  152  A    between atoms: _366  and  _367
REMARK  153  A    between atoms: _366  and  _369
REMARK  154  A    between atoms: _369  and  _370
REMARK  155  A    between atoms: _370  and  _371
REMARK  156  A    between atoms: _371  and  _372
REMARK  157  A    between atoms: _372  and  _373
REMARK  158  A    between atoms: _377  and  _379
REMARK  159  A    between atoms: _379  and  _380
REMARK  160  A    between atoms: _383  and  _385
REMARK  161  A    between atoms: _385  and  _386
REMARK  162  A    between atoms: _385  and  _388
REMARK  163  A    between atoms: _388  and  _389
REMARK  164  A    between atoms: _392  and  _394
REMARK  165  A    between atoms: _394  and  _395
REMARK  166  A    between atoms: _394  and  _397
REMARK  167  A    between atoms: _397  and  _398
REMARK  168  A    between atoms: _401  and  _403
REMARK  169  A    between atoms: _403  and  _404
REMARK  170  A    between atoms: _403  and  _406
REMARK  171  A    between atoms: _409  and  _411
REMARK  172  A    between atoms: _411  and  _412
REMARK  173  A    between atoms: _411  and  _414
REMARK  174  A    between atoms: _414  and  _415
REMARK  175  A    between atoms: _420  and  _422
REMARK  176  A    between atoms: _422  and  _423
REMARK  177  A    between atoms: _422  and  _425
REMARK  178  A    between atoms: _425  and  _426
REMARK  179  A    between atoms: _431  and  _433
REMARK  180  A    between atoms: _433  and  _434
REMARK  181  A    between atoms: _437  and  _438
REMARK  182  A    between atoms: _443  and  _445
REMARK  183  A    between atoms: _445  and  _446
REMARK  184  A    between atoms: _445  and  _448
REMARK  185  A    between atoms: _448  and  _449
REMARK  186  A    between atoms: _459  and  _461
REMARK  187  A    between atoms: _461  and  _462
REMARK  188  A    between atoms: _465  and  _467
REMARK  189  A    between atoms: _467  and  _468
REMARK  190  A    between atoms: _467  and  _470
REMARK  191  A    between atoms: _470  and  _471
REMARK  192  A    between atoms: _476  and  _477
REMARK  193  A    between atoms: _479  and  _481
REMARK  194  A    between atoms: _481  and  _482
REMARK  195  A    between atoms: _481  and  _484
REMARK  196  A    between atoms: _484  and  _485
REMARK  197  A    between atoms: _491  and  _493
REMARK  198  A    between atoms: _493  and  _494
REMARK  199  A    between atoms: _493  and  _496
REMARK  200  A    between atoms: _496  and  _497
REMARK  201  A    between atoms: _500  and  _502
REMARK  202  A    between atoms: _502  and  _503
REMARK  203  A    between atoms: _505  and  _507
REMARK  204  A    between atoms: _507  and  _508
REMARK  205  A    between atoms: _507  and  _510
REMARK  206  A    between atoms: _513  and  _515
REMARK  207  A    between atoms: _515  and  _516
REMARK  208  A    between atoms: _515  and  _518
REMARK  209  A    between atoms: _518  and  _519
REMARK  210  A    between atoms: _519  and  _520
REMARK  211  A    between atoms: _520  and  _521
REMARK  212  A    between atoms: _521  and  _522
REMARK  213  A    between atoms: _526  and  _528
REMARK  214  A    between atoms: _528  and  _529
REMARK  215  A    between atoms: _528  and  _531
REMARK  216  A    between atoms: _531  and  _532
REMARK  217  A    between atoms: _532  and  _533
REMARK  218  A    between atoms: _533  and  _534
REMARK  219  A    between atoms: _543  and  _545
REMARK  220  A    between atoms: _545  and  _546
REMARK  221  A    between atoms: _545  and  _548
REMARK  222  A    between atoms: _548  and  _549
REMARK  223  A    between atoms: _549  and  _550
REMARK  224  A    between atoms: _553  and  _555
REMARK  225  A    between atoms: _555  and  _556
REMARK  226  A    between atoms: _555  and  _558
REMARK  227  A    between atoms: _558  and  _559
REMARK  228  A    between atoms: _559  and  _560
REMARK  229  A    between atoms: _563  and  _564
REMARK  230  A    between atoms: _569  and  _571
REMARK  231  A    between atoms: _571  and  _572
REMARK  232  A    between atoms: _571  and  _574
REMARK  233  A    between atoms: _574  and  _575
REMARK  234  A    between atoms: _575  and  _576
REMARK  235  A    between atoms: _578  and  _580
REMARK  236  A    between atoms: _580  and  _581
REMARK  237  A    between atoms: _583  and  _585
REMARK  238  A    between atoms: _585  and  _586
REMARK  239  A    between atoms: _585  and  _588
REMARK  240  A    between atoms: _591  and  _593
REMARK  241  A    between atoms: _593  and  _594
REMARK  242  A    between atoms: _593  and  _596
REMARK  243  A    between atoms: _596  and  _597
REMARK  244  A    between atoms: _607  and  _609
REMARK  245  A    between atoms: _609  and  _610
REMARK  246  A    between atoms: _609  and  _612
REMARK  247  A    between atoms: _612  and  _613
REMARK  248  A    between atoms: _613  and  _614
REMARK  249  A    between atoms: _618  and  _619
REMARK  250  A    between atoms: _624  and  _626
REMARK  251  A    between atoms: _626  and  _627
REMARK  252  A    between atoms: _626  and  _629
REMARK  253  A    between atoms: _629  and  _630
REMARK  254  A    between atoms: _633  and  _635
REMARK  255  A    between atoms: _635  and  _636
REMARK  256  A    between atoms: _635  and  _638
REMARK  257  A    between atoms: _638  and  _639
REMARK  258  A    between atoms: _644  and  _646
REMARK  259  A    between atoms: _646  and  _647
REMARK  260  A    between atoms: _646  and  _649
REMARK  261  A    between atoms: _649  and  _650
REMARK                            x       y       z     vdW  Elec       q    Type
REMARK                         _______ _______ _______ _____ _____    ______ ____
ROOT
ATOM      1  O   HOH     1      10.587  -4.379  17.482  0.00  0.00    +0.000 OA
ENDROOT
TORSDOF 0
REMARK  Name = ../refined-set-2016/2zym/2zym_pocket.pdb
REMARK  261 active torsions:
REMARK  status: ('A' for Active; 'I' for Inactive)
REMARK    1  A    between atoms: _1  and  _3
REMARK    2  A    between atoms: _3  and  _4
REMARK    3  A    between atoms: _3  and  _6
REMARK    4  A    between atoms: _6  and  _7
REMARK    5  A    between atoms: _7  and  _8
REMARK    6  A    between atoms: _11  and  _13
REMARK    7  A    between atoms: _13  and  _14
REMARK    8  A    between atoms: _13  and  _16
REMARK    9  A    between atoms: _16  and  _17
REMARK   10  A    between atoms: _22  and  _24
REMARK   11  A    between atoms: _24  and  _25
REMARK   12  A    between atoms: _28  and  _30
REMARK   13  A    between atoms: _30  and  _31
REMARK   14  A    between atoms: _30  and  _33
REMARK   15  A    between atoms: _33  and  _34
REMARK   16  A    between atoms: _37  and  _39
REMARK   17  A    between atoms: _39  and  _40
REMARK   18  A    between atoms: _39  and  _42
REMARK   19  A    between atoms: _42  and  _43
REMARK   20  A    between atoms: _43  and  _44
REMARK   21  A    between atoms: _49  and  _51
REMARK   22  A    between atoms: _51  and  _52
REMARK   23  A    between atoms: _51  and  _54
REMARK   24  A    between atoms: _57  and  _59
REMARK   25  A    between atoms: _59  and  _60
REMARK   26  A    between atoms: _63  and  _65
REMARK   27  A    between atoms: _65  and  _66
REMARK   28  A    between atoms: _65  and  _68
REMARK   29  A    between atoms: _68  and  _69
REMARK   30  A    between atoms: _72  and  _74
REMARK   31  A    between atoms: _74  and  _75
REMARK   32  A    between atoms: _74  and  _77
REMARK   33  A    between atoms: _77  and  _78
REMARK   34  A    between atoms: _81  and  _83
REMARK   35  A    between atoms: _83  and  _84
REMARK   36  A    between atoms: _83  and  _86
REMARK   37  A    between atoms: _86  and  _87
REMARK   38  A    between atoms: _87  and  _88
REMARK   39  A    between atoms: _88  and  _89
REMARK   40  A    between atoms: _89  and  _90
REMARK   41  A    between atoms: _94  and  _96
REMARK   42  A    between atoms: _96  and  _97
REMARK   43  A    between atoms: _96  and  _99
REMARK   44  A    between atoms: _99  and  _100
REMARK   45  A    between atoms: _100  and  _101
REMARK   46  A    between atoms: _106  and  _108
REMARK   47  A    between atoms: _108  and  _109
REMARK   48  A    between atoms: _108  and  _111
REMARK   49  A    between atoms: _111  and  _112
REMARK   50  A    between atoms: _112  and  _113
REMARK   51  A    between atoms: _118  and  _120
REMARK   52  A    between atoms: _120  and  _121
REMARK   53  A    between atoms: _120  and  _123
REMARK   54  A    between atoms: _123  and  _124
REMARK   55  A    between atoms: _124  and  _125
REMARK   56  A    between atoms: _128  and  _130
REMARK   57  A    between atoms: _130  and  _131
REMARK   58  A    between atoms: _130  and  _133
REMARK   59  A    between atoms: _133  and  _134
REMARK   60  A    between atoms: _134  and  _135
REMARK   61  A    between atoms: _135  and  _136
REMARK   62  A    between atoms: _136  and  _137
REMARK   63  A    between atoms: _141  and  _143
REMARK   64  A    between atoms: _143  and  _144
REMARK   65  A    between atoms: _143  and  _146
REMARK   66  A    between atoms: _146  and  _147
REMARK   67  A    between atoms: _150  and  _152
REMARK   68  A    between atoms: _152  and  _153
REMARK   69  A    between atoms: _152  and  _155
REMARK   70  A    between atoms: _155  and  _156
REMARK   71  A    between atoms: _167  and  _168
REMARK   72  A    between atoms: _173  and  _175
REMARK   73  A    between atoms: _175  and  _176
REMARK   74  A    between atoms: _175  and  _178
REMARK   75  A    between atoms: _178  and  _179
REMARK   76  A    between atoms: _184  and  _186
REMARK   77  A    between atoms: _186  and  _187
REMARK   78  A    between atoms: _186  and  _189
REMARK   79  A    between atoms: _189  and  _190
REMARK   80  A    between atoms: _193  and  _195
REMARK   81  A    between atoms: _195  and  _196
REMARK   82  A    between atoms: _195  and  _198
REMARK   83  A    between atoms: _198  and  _199
REMARK   84  A    between atoms: _199  and  _200
REMARK   85  A    between atoms: _200  and  _201
REMARK   86  A    between atoms: _210  and  _212
REMARK   87  A    between atoms: _212  and  _213
REMARK   88  A    between atoms: _212  and  _215
REMARK   89  A    between atoms: _215  and  _216
REMARK   90  A    between atoms: _219  and  _221
REMARK   91  A    between atoms: _221  and  _222
REMARK   92  A    between atoms: _221  and  _224
REMARK   93  A    between atoms: _224  and  _225
REMARK   94  A    between atoms: _225  and  _226
REMARK   95  A    between atoms: _229  and  _231
REMARK   96  A    between atoms: _231  and  _232
REMARK   97  A    between atoms: _231  and  _234
REMARK   98  A    between atoms: _234  and  _235
REMARK   99  A    between atoms: _235  and  _236
REMARK  100  A    between atoms: _236  and  _237
REMARK  101  A    between atoms: _237  and  _238
REMARK  102  A    between atoms: _242  and  _244
REMARK  103  A    between atoms: _244  and  _245
REMARK  104  A    between atoms: _248  and  _250
REMARK  105  A    between atoms: _250  and  _251
REMARK  106  A    between atoms: _250  and  _253
REMARK  107  A    between atoms: _253  and  _254
REMARK  108  A    between atoms: _254  and  _255
REMARK  109  A    between atoms: _258  and  _260
REMARK  110  A    between atoms: _260  and  _261
REMARK  111  A    between atoms: _260  and  _263
REMARK  112  A    between atoms: _263  and  _264
REMARK  113  A    between atoms: _266  and  _268
REMARK  114  A    between atoms: _268  and  _269
REMARK  115  A    between atoms: _268  and  _271
REMARK  116  A    between atoms: _274  and  _276
REMARK  117  A    between atoms: _276  and  _277
REMARK  118  A    between atoms: _276  and  _279
REMARK  119  A    between atoms: _279  and  _280
REMARK  120  A    between atoms: _280  and  _281
REMARK  121  A    between atoms: _284  and  _286
REMARK  122  A    between atoms: _286  and  _287
REMARK  123  A    between atoms: _286  and  _289
REMARK  124  A    between atoms: _289  and  _290
REMARK  125  A    between atoms: _295  and  _297
REMARK  126  A    between atoms: _297  and  _298
REMARK  127  A    between atoms: _297  and  _300
REMARK  128  A    between atoms: _300  and  _301
REMARK  129  A    between atoms: _306  and  _308
REMARK  130  A    between atoms: _308  and  _309
REMARK  131  A    between atoms: _308  and  _311
REMARK  132  A    between atoms: _311  and  _312
REMARK  133  A    between atoms: _318  and  _320
REMARK  134  A    between atoms: _320  and  _321
REMARK  135  A    between atoms: _320  and  _323
REMARK  136  A    between atoms: _323  and  _324
REMARK  137  A    between atoms: _329  and  _330
REMARK  138  A    between atoms: _332  and  _334
REMARK  139  A    between atoms: _334  and  _335
REMARK  140  A    between atoms: _334  and  _337
REMARK  141  A    between atoms: _337  and  _338
REMARK  142  A    between atoms: _343  and  _344
REMARK  143  A    between atoms: _346  and  _348
REMARK  144  A    between atoms: _348  and  _349
REMARK  145  A    between atoms: _348  and  _351
REMARK  146  A    between atoms: _351  and  _352
REMARK  147  A    between atoms: _355  and  _357
REMARK  148  A    between atoms: _357  and  _358
REMARK  149  A    between atoms: _357  and  _360
REMARK  150  A    between atoms: _360  and  _361
REMARK  151  A    between atoms: _364  and  _366
REMARK  152  A    between atoms: _366  and  _367
REMARK  153  A    between atoms: _366  and  _369
REMARK  154  A    between atoms: _369  and  _370
REMARK  155  A    between atoms: _370  and  _371
REMARK  156  A    between atoms: _371  and  _372
REMARK  157  A    between atoms: _372  and  _373
REMARK  158  A    between atoms: _377  and  _379
REMARK  159  A    between atoms: _379  and  _380
REMARK  160  A    between atoms: _383  and  _385
REMARK  161  A    between atoms: _385  and  _386
REMARK  162  A    between atoms: _385  and  _388
REMARK  163  A    between atoms: _388  and  _389
REMARK  164  A    between atoms: _392  and  _394
REMARK  165  A    between atoms: _394  and  _395
REMARK  166  A    between atoms: _394  and  _397
REMARK  167  A    between atoms: _397  and  _398
REMARK  168  A    between atoms: _401  and  _403
REMARK  169  A    between atoms: _403  and  _404
REMARK  170  A    between atoms: _403  and  _406
REMARK  171  A    between atoms: _409  and  _411
REMARK  172  A    between atoms: _411  and  _412
REMARK  173  A    between atoms: _411  and  _414
REMARK  174  A    between atoms: _414  and  _415
REMARK  175  A    between atoms: _420  and  _422
REMARK  176  A    between atoms: _422  and  _423
REMARK  177  A    between atoms: _422  and  _425
REMARK  178  A    between atoms: _425  and  _426
REMARK  179  A    between atoms: _431  and  _433
REMARK  180  A    between atoms: _433  and  _434
REMARK  181  A    between atoms: _437  and  _438
REMARK  182  A    between atoms: _443  and  _445
REMARK  183  A    between atoms: _445  and  _446
REMARK  184  A    between atoms: _445  and  _448
REMARK  185  A    between atoms: _448  and  _449
REMARK  186  A    between atoms: _459  and  _461
REMARK  187  A    between atoms: _461  and  _462
REMARK  188  A    between atoms: _465  and  _467
REMARK  189  A    between atoms: _467  and  _468
REMARK  190  A    between atoms: _467  and  _470
REMARK  191  A    between atoms: _470  and  _471
REMARK  192  A    between atoms: _476  and  _477
REMARK  193  A    between atoms: _479  and  _481
REMARK  194  A    between atoms: _481  and  _482
REMARK  195  A    between atoms: _481  and  _484
REMARK  196  A    between atoms: _484  and  _485
REMARK  197  A    between atoms: _491  and  _493
REMARK  198  A    between atoms: _493  and  _494
REMARK  199  A    between atoms: _493  and  _496
REMARK  200  A    between atoms: _496  and  _497
REMARK  201  A    between atoms: _500  and  _502
REMARK  202  A    between atoms: _502  and  _503
REMARK  203  A    between atoms: _505  and  _507
REMARK  204  A    between atoms: _507  and  _508
REMARK  205  A    between atoms: _507  and  _510
REMARK  206  A    between atoms: _513  and  _515
REMARK  207  A    between atoms: _515  and  _516
REMARK  208  A    between atoms: _515  and  _518
REMARK  209  A    between atoms: _518  and  _519
REMARK  210  A    between atoms: _519  and  _520
REMARK  211  A    between atoms: _520  and  _521
REMARK  212  A    between atoms: _521  and  _522
REMARK  213  A    between atoms: _526  and  _528
REMARK  214  A    between atoms: _528  and  _529
REMARK  215  A    between atoms: _528  and  _531
REMARK  216  A    between atoms: _531  and  _532
REMARK  217  A    between atoms: _532  and  _533
REMARK  218  A    between atoms: _533  and  _534
REMARK  219  A    between atoms: _543  and  _545
REMARK  220  A    between atoms: _545  and  _546
REMARK  221  A    between atoms: _545  and  _548
REMARK  222  A    between atoms: _548  and  _549
REMARK  223  A    between atoms: _549  and  _550
REMARK  224  A    between atoms: _553  and  _555
REMARK  225  A    between atoms: _555  and  _556
REMARK  226  A    between atoms: _555  and  _558
REMARK  227  A    between atoms: _558  and  _559
REMARK  228  A    between atoms: _559  and  _560
REMARK  229  A    between atoms: _563  and  _564
REMARK  230  A    between atoms: _569  and  _571
REMARK  231  A    between atoms: _571  and  _572
REMARK  232  A    between atoms: _571  and  _574
REMARK  233  A    between atoms: _574  and  _575
REMARK  234  A    between atoms: _575  and  _576
REMARK  235  A    between atoms: _578  and  _580
REMARK  236  A    between atoms: _580  and  _581
REMARK  237  A    between atoms: _583  and  _585
REMARK  238  A    between atoms: _585  and  _586
REMARK  239  A    between atoms: _585  and  _588
REMARK  240  A    between atoms: _591  and  _593
REMARK  241  A    between atoms: _593  and  _594
REMARK  242  A    between atoms: _593  and  _596
REMARK  243  A    between atoms: _596  and  _597
REMARK  244  A    between atoms: _607  and  _609
REMARK  245  A    between atoms: _609  and  _610
REMARK  246  A    between atoms: _609  and  _612
REMARK  247  A    between atoms: _612  and  _613
REMARK  248  A    between atoms: _613  and  _614
REMARK  249  A    between atoms: _618  and  _619
REMARK  250  A    between atoms: _624  and  _626
REMARK  251  A    between atoms: _626  and  _627
REMARK  252  A    between atoms: _626  and  _629
REMARK  253  A    between atoms: _629  and  _630
REMARK  254  A    between atoms: _633  and  _635
REMARK  255  A    between atoms: _635  and  _636
REMARK  256  A    between atoms: _635  and  _638
REMARK  257  A    between atoms: _638  and  _639
REMARK  258  A    between atoms: _644  and  _646
REMARK  259  A    between atoms: _646  and  _647
REMARK  260  A    between atoms: _646  and  _649
REMARK  261  A    between atoms: _649  and  _650
REMARK                            x       y       z     vdW  Elec       q    Type
REMARK                         _______ _______ _______ _____ _____    ______ ____
ROOT
ATOM      1  O   HOH     1      21.021   2.538  11.538  0.00  0.00    +0.000 OA
ENDROOT
TORSDOF 0
REMARK  Name = ../refined-set-2016/2zym/2zym_pocket.pdb
REMARK  261 active torsions:
REMARK  status: ('A' for Active; 'I' for Inactive)
REMARK    1  A    between atoms: _1  and  _3
REMARK    2  A    between atoms: _3  and  _4
REMARK    3  A    between atoms: _3  and  _6
REMARK    4  A    between atoms: _6  and  _7
REMARK    5  A    between atoms: _7  and  _8
REMARK    6  A    between atoms: _11  and  _13
REMARK    7  A    between atoms: _13  and  _14
REMARK    8  A    between atoms: _13  and  _16
REMARK    9  A    between atoms: _16  and  _17
REMARK   10  A    between atoms: _22  and  _24
REMARK   11  A    between atoms: _24  and  _25
REMARK   12  A    between atoms: _28  and  _30
REMARK   13  A    between atoms: _30  and  _31
REMARK   14  A    between atoms: _30  and  _33
REMARK   15  A    between atoms: _33  and  _34
REMARK   16  A    between atoms: _37  and  _39
REMARK   17  A    between atoms: _39  and  _40
REMARK   18  A    between atoms: _39  and  _42
REMARK   19  A    between atoms: _42  and  _43
REMARK   20  A    between atoms: _43  and  _44
REMARK   21  A    between atoms: _49  and  _51
REMARK   22  A    between atoms: _51  and  _52
REMARK   23  A    between atoms: _51  and  _54
REMARK   24  A    between atoms: _57  and  _59
REMARK   25  A    between atoms: _59  and  _60
REMARK   26  A    between atoms: _63  and  _65
REMARK   27  A    between atoms: _65  and  _66
REMARK   28  A    between atoms: _65  and  _68
REMARK   29  A    between atoms: _68  and  _69
REMARK   30  A    between atoms: _72  and  _74
REMARK   31  A    between atoms: _74  and  _75
REMARK   32  A    between atoms: _74  and  _77
REMARK   33  A    between atoms: _77  and  _78
REMARK   34  A    between atoms: _81  and  _83
REMARK   35  A    between atoms: _83  and  _84
REMARK   36  A    between atoms: _83  and  _86
REMARK   37  A    between atoms: _86  and  _87
REMARK   38  A    between atoms: _87  and  _88
REMARK   39  A    between atoms: _88  and  _89
REMARK   40  A    between atoms: _89  and  _90
REMARK   41  A    between atoms: _94  and  _96
REMARK   42  A    between atoms: _96  and  _97
REMARK   43  A    between atoms: _96  and  _99
REMARK   44  A    between atoms: _99  and  _100
REMARK   45  A    between atoms: _100  and  _101
REMARK   46  A    between atoms: _106  and  _108
REMARK   47  A    between atoms: _108  and  _109
REMARK   48  A    between atoms: _108  and  _111
REMARK   49  A    between atoms: _111  and  _112
REMARK   50  A    between atoms: _112  and  _113
REMARK   51  A    between atoms: _118  and  _120
REMARK   52  A    between atoms: _120  and  _121
REMARK   53  A    between atoms: _120  and  _123
REMARK   54  A    between atoms: _123  and  _124
REMARK   55  A    between atoms: _124  and  _125
REMARK   56  A    between atoms: _128  and  _130
REMARK   57  A    between atoms: _130  and  _131
REMARK   58  A    between atoms: _130  and  _133
REMARK   59  A    between atoms: _133  and  _134
REMARK   60  A    between atoms: _134  and  _135
REMARK   61  A    between atoms: _135  and  _136
REMARK   62  A    between atoms: _136  and  _137
REMARK   63  A    between atoms: _141  and  _143
REMARK   64  A    between atoms: _143  and  _144
REMARK   65  A    between atoms: _143  and  _146
REMARK   66  A    between atoms: _146  and  _147
REMARK   67  A    between atoms: _150  and  _152
REMARK   68  A    between atoms: _152  and  _153
REMARK   69  A    between atoms: _152  and  _155
REMARK   70  A    between atoms: _155  and  _156
REMARK   71  A    between atoms: _167  and  _168
REMARK   72  A    between atoms: _173  and  _175
REMARK   73  A    between atoms: _175  and  _176
REMARK   74  A    between atoms: _175  and  _178
REMARK   75  A    between atoms: _178  and  _179
REMARK   76  A    between atoms: _184  and  _186
REMARK   77  A    between atoms: _186  and  _187
REMARK   78  A    between atoms: _186  and  _189
REMARK   79  A    between atoms: _189  and  _190
REMARK   80  A    between atoms: _193  and  _195
REMARK   81  A    between atoms: _195  and  _196
REMARK   82  A    between atoms: _195  and  _198
REMARK   83  A    between atoms: _198  and  _199
REMARK   84  A    between atoms: _199  and  _200
REMARK   85  A    between atoms: _200  and  _201
REMARK   86  A    between atoms: _210  and  _212
REMARK   87  A    between atoms: _212  and  _213
REMARK   88  A    between atoms: _212  and  _215
REMARK   89  A    between atoms: _215  and  _216
REMARK   90  A    between atoms: _219  and  _221
REMARK   91  A    between atoms: _221  and  _222
REMARK   92  A    between atoms: _221  and  _224
REMARK   93  A    between atoms: _224  and  _225
REMARK   94  A    between atoms: _225  and  _226
REMARK   95  A    between atoms: _229  and  _231
REMARK   96  A    between atoms: _231  and  _232
REMARK   97  A    between atoms: _231  and  _234
REMARK   98  A    between atoms: _234  and  _235
REMARK   99  A    between atoms: _235  and  _236
REMARK  100  A    between atoms: _236  and  _237
REMARK  101  A    between atoms: _237  and  _238
REMARK  102  A    between atoms: _242  and  _244
REMARK  103  A    between atoms: _244  and  _245
REMARK  104  A    between atoms: _248  and  _250
REMARK  105  A    between atoms: _250  and  _251
REMARK  106  A    between atoms: _250  and  _253
REMARK  107  A    between atoms: _253  and  _254
REMARK  108  A    between atoms: _254  and  _255
REMARK  109  A    between atoms: _258  and  _260
REMARK  110  A    between atoms: _260  and  _261
REMARK  111  A    between atoms: _260  and  _263
REMARK  112  A    between atoms: _263  and  _264
REMARK  113  A    between atoms: _266  and  _268
REMARK  114  A    between atoms: _268  and  _269
REMARK  115  A    between atoms: _268  and  _271
REMARK  116  A    between atoms: _274  and  _276
REMARK  117  A    between atoms: _276  and  _277
REMARK  118  A    between atoms: _276  and  _279
REMARK  119  A    between atoms: _279  and  _280
REMARK  120  A    between atoms: _280  and  _281
REMARK  121  A    between atoms: _284  and  _286
REMARK  122  A    between atoms: _286  and  _287
REMARK  123  A    between atoms: _286  and  _289
REMARK  124  A    between atoms: _289  and  _290
REMARK  125  A    between atoms: _295  and  _297
REMARK  126  A    between atoms: _297  and  _298
REMARK  127  A    between atoms: _297  and  _300
REMARK  128  A    between atoms: _300  and  _301
REMARK  129  A    between atoms: _306  and  _308
REMARK  130  A    between atoms: _308  and  _309
REMARK  131  A    between atoms: _308  and  _311
REMARK  132  A    between atoms: _311  and  _312
REMARK  133  A    between atoms: _318  and  _320
REMARK  134  A    between atoms: _320  and  _321
REMARK  135  A    between atoms: _320  and  _323
REMARK  136  A    between atoms: _323  and  _324
REMARK  137  A    between atoms: _329  and  _330
REMARK  138  A    between atoms: _332  and  _334
REMARK  139  A    between atoms: _334  and  _335
REMARK  140  A    between atoms: _334  and  _337
REMARK  141  A    between atoms: _337  and  _338
REMARK  142  A    between atoms: _343  and  _344
REMARK  143  A    between atoms: _346  and  _348
REMARK  144  A    between atoms: _348  and  _349
REMARK  145  A    between atoms: _348  and  _351
REMARK  146  A    between atoms: _351  and  _352
REMARK  147  A    between atoms: _355  and  _357
REMARK  148  A    between atoms: _357  and  _358
REMARK  149  A    between atoms: _357  and  _360
REMARK  150  A    between atoms: _360  and  _361
REMARK  151  A    between atoms: _364  and  _366
REMARK  152  A    between atoms: _366  and  _367
REMARK  153  A    between atoms: _366  and  _369
REMARK  154  A    between atoms: _369  and  _370
REMARK  155  A    between atoms: _370  and  _371
REMARK  156  A    between atoms: _371  and  _372
REMARK  157  A    between atoms: _372  and  _373
REMARK  158  A    between atoms: _377  and  _379
REMARK  159  A    between atoms: _379  and  _380
REMARK  160  A    between atoms: _383  and  _385
REMARK  161  A    between atoms: _385  and  _386
REMARK  162  A    between atoms: _385  and  _388
REMARK  163  A    between atoms: _388  and  _389
REMARK  164  A    between atoms: _392  and  _394
REMARK  165  A    between atoms: _394  and  _395
REMARK  166  A    between atoms: _394  and  _397
REMARK  167  A    between atoms: _397  and  _398
REMARK  168  A    between atoms: _401  and  _403
REMARK  169  A    between atoms: _403  and  _404
REMARK  170  A    between atoms: _403  and  _406
REMARK  171  A    between atoms: _409  and  _411
REMARK  172  A    between atoms: _411  and  _412
REMARK  173  A    between atoms: _411  and  _414
REMARK  174  A    between atoms: _414  and  _415
REMARK  175  A    between atoms: _420  and  _422
REMARK  176  A    between atoms: _422  and  _423
REMARK  177  A    between atoms: _422  and  _425
REMARK  178  A    between atoms: _425  and  _426
REMARK  179  A    between atoms: _431  and  _433
REMARK  180  A    between atoms: _433  and  _434
REMARK  181  A    between atoms: _437  and  _438
REMARK  182  A    between atoms: _443  and  _445
REMARK  183  A    between atoms: _445  and  _446
REMARK  184  A    between atoms: _445  and  _448
REMARK  185  A    between atoms: _448  and  _449
REMARK  186  A    between atoms: _459  and  _461
REMARK  187  A    between atoms: _461  and  _462
REMARK  188  A    between atoms: _465  and  _467
REMARK  189  A    between atoms: _467  and  _468
REMARK  190  A    between atoms: _467  and  _470
REMARK  191  A    between atoms: _470  and  _471
REMARK  192  A    between atoms: _476  and  _477
REMARK  193  A    between atoms: _479  and  _481
REMARK  194  A    between atoms: _481  and  _482
REMARK  195  A    between atoms: _481  and  _484
REMARK  196  A    between atoms: _484  and  _485
REMARK  197  A    between atoms: _491  and  _493
REMARK  198  A    between atoms: _493  and  _494
REMARK  199  A    between atoms: _493  and  _496
REMARK  200  A    between atoms: _496  and  _497
REMARK  201  A    between atoms: _500  and  _502
REMARK  202  A    between atoms: _502  and  _503
REMARK  203  A    between atoms: _505  and  _507
REMARK  204  A    between atoms: _507  and  _508
REMARK  205  A    between atoms: _507  and  _510
REMARK  206  A    between atoms: _513  and  _515
REMARK  207  A    between atoms: _515  and  _516
REMARK  208  A    between atoms: _515  and  _518
REMARK  209  A    between atoms: _518  and  _519
REMARK  210  A    between atoms: _519  and  _520
REMARK  211  A    between atoms: _520  and  _521
REMARK  212  A    between atoms: _521  and  _522
REMARK  213  A    between atoms: _526  and  _528
REMARK  214  A    between atoms: _528  and  _529
REMARK  215  A    between atoms: _528  and  _531
REMARK  216  A    between atoms: _531  and  _532
REMARK  217  A    between atoms: _532  and  _533
REMARK  218  A    between atoms: _533  and  _534
REMARK  219  A    between atoms: _543  and  _545
REMARK  220  A    between atoms: _545  and  _546
REMARK  221  A    between atoms: _545  and  _548
REMARK  222  A    between atoms: _548  and  _549
REMARK  223  A    between atoms: _549  and  _550
REMARK  224  A    between atoms: _553  and  _555
REMARK  225  A    between atoms: _555  and  _556
REMARK  226  A    between atoms: _555  and  _558
REMARK  227  A    between atoms: _558  and  _559
REMARK  228  A    between atoms: _559  and  _560
REMARK  229  A    between atoms: _563  and  _564
REMARK  230  A    between atoms: _569  and  _571
REMARK  231  A    between atoms: _571  and  _572
REMARK  232  A    between atoms: _571  and  _574
REMARK  233  A    between atoms: _574  and  _575
REMARK  234  A    between atoms: _575  and  _576
REMARK  235  A    between atoms: _578  and  _580
REMARK  236  A    between atoms: _580  and  _581
REMARK  237  A    between atoms: _583  and  _585
REMARK  238  A    between atoms: _585  and  _586
REMARK  239  A    between atoms: _585  and  _588
REMARK  240  A    between atoms: _591  and  _593
REMARK  241  A    between atoms: _593  and  _594
REMARK  242  A    between atoms: _593  and  _596
REMARK  243  A    between atoms: _596  and  _597
REMARK  244  A    between atoms: _607  and  _609
REMARK  245  A    between atoms: _609  and  _610
REMARK  246  A    between atoms: _609  and  _612
REMARK  247  A    between atoms: _612  and  _613
REMARK  248  A    between atoms: _613  and  _614
REMARK  249  A    between atoms: _618  and  _619
REMARK  250  A    between atoms: _624  and  _626
REMARK  251  A    between atoms: _626  and  _627
REMARK  252  A    between atoms: _626  and  _629
REMARK  253  A    between atoms: _629  and  _630
REMARK  254  A    between atoms: _633  and  _635
REMARK  255  A    between atoms: _635  and  _636
REMARK  256  A    between atoms: _635  and  _638
REMARK  257  A    between atoms: _638  and  _639
REMARK  258  A    between atoms: _644  and  _646
REMARK  259  A    between atoms: _646  and  _647
REMARK  260  A    between atoms: _646  and  _649
REMARK  261  A    between atoms: _649  and  _650
REMARK                            x       y       z     vdW  Elec       q    Type
REMARK                         _______ _______ _______ _____ _____    ______ ____
ROOT
ATOM      1  O   HOH     1      16.408   1.962   8.254  0.00  0.00    +0.000 OA
ENDROOT
TORSDOF 0
REMARK  Name = ../refined-set-2016/2zym/2zym_pocket.pdb
REMARK  261 active torsions:
REMARK  status: ('A' for Active; 'I' for Inactive)
REMARK    1  A    between atoms: _1  and  _3
REMARK    2  A    between atoms: _3  and  _4
REMARK    3  A    between atoms: _3  and  _6
REMARK    4  A    between atoms: _6  and  _7
REMARK    5  A    between atoms: _7  and  _8
REMARK    6  A    between atoms: _11  and  _13
REMARK    7  A    between atoms: _13  and  _14
REMARK    8  A    between atoms: _13  and  _16
REMARK    9  A    between atoms: _16  and  _17
REMARK   10  A    between atoms: _22  and  _24
REMARK   11  A    between atoms: _24  and  _25
REMARK   12  A    between atoms: _28  and  _30
REMARK   13  A    between atoms: _30  and  _31
REMARK   14  A    between atoms: _30  and  _33
REMARK   15  A    between atoms: _33  and  _34
REMARK   16  A    between atoms: _37  and  _39
REMARK   17  A    between atoms: _39  and  _40
REMARK   18  A    between atoms: _39  and  _42
REMARK   19  A    between atoms: _42  and  _43
REMARK   20  A    between atoms: _43  and  _44
REMARK   21  A    between atoms: _49  and  _51
REMARK   22  A    between atoms: _51  and  _52
REMARK   23  A    between atoms: _51  and  _54
REMARK   24  A    between atoms: _57  and  _59
REMARK   25  A    between atoms: _59  and  _60
REMARK   26  A    between atoms: _63  and  _65
REMARK   27  A    between atoms: _65  and  _66
REMARK   28  A    between atoms: _65  and  _68
REMARK   29  A    between atoms: _68  and  _69
REMARK   30  A    between atoms: _72  and  _74
REMARK   31  A    between atoms: _74  and  _75
REMARK   32  A    between atoms: _74  and  _77
REMARK   33  A    between atoms: _77  and  _78
REMARK   34  A    between atoms: _81  and  _83
REMARK   35  A    between atoms: _83  and  _84
REMARK   36  A    between atoms: _83  and  _86
REMARK   37  A    between atoms: _86  and  _87
REMARK   38  A    between atoms: _87  and  _88
REMARK   39  A    between atoms: _88  and  _89
REMARK   40  A    between atoms: _89  and  _90
REMARK   41  A    between atoms: _94  and  _96
REMARK   42  A    between atoms: _96  and  _97
REMARK   43  A    between atoms: _96  and  _99
REMARK   44  A    between atoms: _99  and  _100
REMARK   45  A    between atoms: _100  and  _101
REMARK   46  A    between atoms: _106  and  _108
REMARK   47  A    between atoms: _108  and  _109
REMARK   48  A    between atoms: _108  and  _111
REMARK   49  A    between atoms: _111  and  _112
REMARK   50  A    between atoms: _112  and  _113
REMARK   51  A    between atoms: _118  and  _120
REMARK   52  A    between atoms: _120  and  _121
REMARK   53  A    between atoms: _120  and  _123
REMARK   54  A    between atoms: _123  and  _124
REMARK   55  A    between atoms: _124  and  _125
REMARK   56  A    between atoms: _128  and  _130
REMARK   57  A    between atoms: _130  and  _131
REMARK   58  A    between atoms: _130  and  _133
REMARK   59  A    between atoms: _133  and  _134
REMARK   60  A    between atoms: _134  and  _135
REMARK   61  A    between atoms: _135  and  _136
REMARK   62  A    between atoms: _136  and  _137
REMARK   63  A    between atoms: _141  and  _143
REMARK   64  A    between atoms: _143  and  _144
REMARK   65  A    between atoms: _143  and  _146
REMARK   66  A    between atoms: _146  and  _147
REMARK   67  A    between atoms: _150  and  _152
REMARK   68  A    between atoms: _152  and  _153
REMARK   69  A    between atoms: _152  and  _155
REMARK   70  A    between atoms: _155  and  _156
REMARK   71  A    between atoms: _167  and  _168
REMARK   72  A    between atoms: _173  and  _175
REMARK   73  A    between atoms: _175  and  _176
REMARK   74  A    between atoms: _175  and  _178
REMARK   75  A    between atoms: _178  and  _179
REMARK   76  A    between atoms: _184  and  _186
REMARK   77  A    between atoms: _186  and  _187
REMARK   78  A    between atoms: _186  and  _189
REMARK   79  A    between atoms: _189  and  _190
REMARK   80  A    between atoms: _193  and  _195
REMARK   81  A    between atoms: _195  and  _196
REMARK   82  A    between atoms: _195  and  _198
REMARK   83  A    between atoms: _198  and  _199
REMARK   84  A    between atoms: _199  and  _200
REMARK   85  A    between atoms: _200  and  _201
REMARK   86  A    between atoms: _210  and  _212
REMARK   87  A    between atoms: _212  and  _213
REMARK   88  A    between atoms: _212  and  _215
REMARK   89  A    between atoms: _215  and  _216
REMARK   90  A    between atoms: _219  and  _221
REMARK   91  A    between atoms: _221  and  _222
REMARK   92  A    between atoms: _221  and  _224
REMARK   93  A    between atoms: _224  and  _225
REMARK   94  A    between atoms: _225  and  _226
REMARK   95  A    between atoms: _229  and  _231
REMARK   96  A    between atoms: _231  and  _232
REMARK   97  A    between atoms: _231  and  _234
REMARK   98  A    between atoms: _234  and  _235
REMARK   99  A    between atoms: _235  and  _236
REMARK  100  A    between atoms: _236  and  _237
REMARK  101  A    between atoms: _237  and  _238
REMARK  102  A    between atoms: _242  and  _244
REMARK  103  A    between atoms: _244  and  _245
REMARK  104  A    between atoms: _248  and  _250
REMARK  105  A    between atoms: _250  and  _251
REMARK  106  A    between atoms: _250  and  _253
REMARK  107  A    between atoms: _253  and  _254
REMARK  108  A    between atoms: _254  and  _255
REMARK  109  A    between atoms: _258  and  _260
REMARK  110  A    between atoms: _260  and  _261
REMARK  111  A    between atoms: _260  and  _263
REMARK  112  A    between atoms: _263  and  _264
REMARK  113  A    between atoms: _266  and  _268
REMARK  114  A    between atoms: _268  and  _269
REMARK  115  A    between atoms: _268  and  _271
REMARK  116  A    between atoms: _274  and  _276
REMARK  117  A    between atoms: _276  and  _277
REMARK  118  A    between atoms: _276  and  _279
REMARK  119  A    between atoms: _279  and  _280
REMARK  120  A    between atoms: _280  and  _281
REMARK  121  A    between atoms: _284  and  _286
REMARK  122  A    between atoms: _286  and  _287
REMARK  123  A    between atoms: _286  and  _289
REMARK  124  A    between atoms: _289  and  _290
REMARK  125  A    between atoms: _295  and  _297
REMARK  126  A    between atoms: _297  and  _298
REMARK  127  A    between atoms: _297  and  _300
REMARK  128  A    between atoms: _300  and  _301
REMARK  129  A    between atoms: _306  and  _308
REMARK  130  A    between atoms: _308  and  _309
REMARK  131  A    between atoms: _308  and  _311
REMARK  132  A    between atoms: _311  and  _312
REMARK  133  A    between atoms: _318  and  _320
REMARK  134  A    between atoms: _320  and  _321
REMARK  135  A    between atoms: _320  and  _323
REMARK  136  A    between atoms: _323  and  _324
REMARK  137  A    between atoms: _329  and  _330
REMARK  138  A    between atoms: _332  and  _334
REMARK  139  A    between atoms: _334  and  _335
REMARK  140  A    between atoms: _334  and  _337
REMARK  141  A    between atoms: _337  and  _338
REMARK  142  A    between atoms: _343  and  _344
REMARK  143  A    between atoms: _346  and  _348
REMARK  144  A    between atoms: _348  and  _349
REMARK  145  A    between atoms: _348  and  _351
REMARK  146  A    between atoms: _351  and  _352
REMARK  147  A    between atoms: _355  and  _357
REMARK  148  A    between atoms: _357  and  _358
REMARK  149  A    between atoms: _357  and  _360
REMARK  150  A    between atoms: _360  and  _361
REMARK  151  A    between atoms: _364  and  _366
REMARK  152  A    between atoms: _366  and  _367
REMARK  153  A    between atoms: _366  and  _369
REMARK  154  A    between atoms: _369  and  _370
REMARK  155  A    between atoms: _370  and  _371
REMARK  156  A    between atoms: _371  and  _372
REMARK  157  A    between atoms: _372  and  _373
REMARK  158  A    between atoms: _377  and  _379
REMARK  159  A    between atoms: _379  and  _380
REMARK  160  A    between atoms: _383  and  _385
REMARK  161  A    between atoms: _385  and  _386
REMARK  162  A    between atoms: _385  and  _388
REMARK  163  A    between atoms: _388  and  _389
REMARK  164  A    between atoms: _392  and  _394
REMARK  165  A    between atoms: _394  and  _395
REMARK  166  A    between atoms: _394  and  _397
REMARK  167  A    between atoms: _397  and  _398
REMARK  168  A    between atoms: _401  and  _403
REMARK  169  A    between atoms: _403  and  _404
REMARK  170  A    between atoms: _403  and  _406
REMARK  171  A    between atoms: _409  and  _411
REMARK  172  A    between atoms: _411  and  _412
REMARK  173  A    between atoms: _411  and  _414
REMARK  174  A    between atoms: _414  and  _415
REMARK  175  A    between atoms: _420  and  _422
REMARK  176  A    between atoms: _422  and  _423
REMARK  177  A    between atoms: _422  and  _425
REMARK  178  A    between atoms: _425  and  _426
REMARK  179  A    between atoms: _431  and  _433
REMARK  180  A    between atoms: _433  and  _434
REMARK  181  A    between atoms: _437  and  _438
REMARK  182  A    between atoms: _443  and  _445
REMARK  183  A    between atoms: _445  and  _446
REMARK  184  A    between atoms: _445  and  _448
REMARK  185  A    between atoms: _448  and  _449
REMARK  186  A    between atoms: _459  and  _461
REMARK  187  A    between atoms: _461  and  _462
REMARK  188  A    between atoms: _465  and  _467
REMARK  189  A    between atoms: _467  and  _468
REMARK  190  A    between atoms: _467  and  _470
REMARK  191  A    between atoms: _470  and  _471
REMARK  192  A    between atoms: _476  and  _477
REMARK  193  A    between atoms: _479  and  _481
REMARK  194  A    between atoms: _481  and  _482
REMARK  195  A    between atoms: _481  and  _484
REMARK  196  A    between atoms: _484  and  _485
REMARK  197  A    between atoms: _491  and  _493
REMARK  198  A    between atoms: _493  and  _494
REMARK  199  A    between atoms: _493  and  _496
REMARK  200  A    between atoms: _496  and  _497
REMARK  201  A    between atoms: _500  and  _502
REMARK  202  A    between atoms: _502  and  _503
REMARK  203  A    between atoms: _505  and  _507
REMARK  204  A    between atoms: _507  and  _508
REMARK  205  A    between atoms: _507  and  _510
REMARK  206  A    between atoms: _513  and  _515
REMARK  207  A    between atoms: _515  and  _516
REMARK  208  A    between atoms: _515  and  _518
REMARK  209  A    between atoms: _518  and  _519
REMARK  210  A    between atoms: _519  and  _520
REMARK  211  A    between atoms: _520  and  _521
REMARK  212  A    between atoms: _521  and  _522
REMARK  213  A    between atoms: _526  and  _528
REMARK  214  A    between atoms: _528  and  _529
REMARK  215  A    between atoms: _528  and  _531
REMARK  216  A    between atoms: _531  and  _532
REMARK  217  A    between atoms: _532  and  _533
REMARK  218  A    between atoms: _533  and  _534
REMARK  219  A    between atoms: _543  and  _545
REMARK  220  A    between atoms: _545  and  _546
REMARK  221  A    between atoms: _545  and  _548
REMARK  222  A    between atoms: _548  and  _549
REMARK  223  A    between atoms: _549  and  _550
REMARK  224  A    between atoms: _553  and  _555
REMARK  225  A    between atoms: _555  and  _556
REMARK  226  A    between atoms: _555  and  _558
REMARK  227  A    between atoms: _558  and  _559
REMARK  228  A    between atoms: _559  and  _560
REMARK  229  A    between atoms: _563  and  _564
REMARK  230  A    between atoms: _569  and  _571
REMARK  231  A    between atoms: _571  and  _572
REMARK  232  A    between atoms: _571  and  _574
REMARK  233  A    between atoms: _574  and  _575
REMARK  234  A    between atoms: _575  and  _576
REMARK  235  A    between atoms: _578  and  _580
REMARK  236  A    between atoms: _580  and  _581
REMARK  237  A    between atoms: _583  and  _585
REMARK  238  A    between atoms: _585  and  _586
REMARK  239  A    between atoms: _585  and  _588
REMARK  240  A    between atoms: _591  and  _593
REMARK  241  A    between atoms: _593  and  _594
REMARK  242  A    between atoms: _593  and  _596
REMARK  243  A    between atoms: _596  and  _597
REMARK  244  A    between atoms: _607  and  _609
REMARK  245  A    between atoms: _609  and  _610
REMARK  246  A    between atoms: _609  and  _612
REMARK  247  A    between atoms: _612  and  _613
REMARK  248  A    between atoms: _613  and  _614
REMARK  249  A    between atoms: _618  and  _619
REMARK  250  A    between atoms: _624  and  _626
REMARK  251  A    between atoms: _626  and  _627
REMARK  252  A    between atoms: _626  and  _629
REMARK  253  A    between atoms: _629  and  _630
REMARK  254  A    between atoms: _633  and  _635
REMARK  255  A    between atoms: _635  and  _636
REMARK  256  A    between atoms: _635  and  _638
REMARK  257  A    between atoms: _638  and  _639
REMARK  258  A    between atoms: _644  and  _646
REMARK  259  A    between atoms: _646  and  _647
REMARK  260  A    between atoms: _646  and  _649
REMARK  261  A    between atoms: _649  and  _650
REMARK                            x       y       z     vdW  Elec       q    Type
REMARK                         _______ _______ _______ _____ _____    ______ ____
ROOT
ATOM      1  O   HOH     1      14.410  -0.218  12.058  0.00  0.00    +0.000 OA
ENDROOT
TORSDOF 0
REMARK  Name = ../refined-set-2016/2zym/2zym_pocket.pdb
REMARK  261 active torsions:
REMARK  status: ('A' for Active; 'I' for Inactive)
REMARK    1  A    between atoms: _1  and  _3
REMARK    2  A    between atoms: _3  and  _4
REMARK    3  A    between atoms: _3  and  _6
REMARK    4  A    between atoms: _6  and  _7
REMARK    5  A    between atoms: _7  and  _8
REMARK    6  A    between atoms: _11  and  _13
REMARK    7  A    between atoms: _13  and  _14
REMARK    8  A    between atoms: _13  and  _16
REMARK    9  A    between atoms: _16  and  _17
REMARK   10  A    between atoms: _22  and  _24
REMARK   11  A    between atoms: _24  and  _25
REMARK   12  A    between atoms: _28  and  _30
REMARK   13  A    between atoms: _30  and  _31
REMARK   14  A    between atoms: _30  and  _33
REMARK   15  A    between atoms: _33  and  _34
REMARK   16  A    between atoms: _37  and  _39
REMARK   17  A    between atoms: _39  and  _40
REMARK   18  A    between atoms: _39  and  _42
REMARK   19  A    between atoms: _42  and  _43
REMARK   20  A    between atoms: _43  and  _44
REMARK   21  A    between atoms: _49  and  _51
REMARK   22  A    between atoms: _51  and  _52
REMARK   23  A    between atoms: _51  and  _54
REMARK   24  A    between atoms: _57  and  _59
REMARK   25  A    between atoms: _59  and  _60
REMARK   26  A    between atoms: _63  and  _65
REMARK   27  A    between atoms: _65  and  _66
REMARK   28  A    between atoms: _65  and  _68
REMARK   29  A    between atoms: _68  and  _69
REMARK   30  A    between atoms: _72  and  _74
REMARK   31  A    between atoms: _74  and  _75
REMARK   32  A    between atoms: _74  and  _77
REMARK   33  A    between atoms: _77  and  _78
REMARK   34  A    between atoms: _81  and  _83
REMARK   35  A    between atoms: _83  and  _84
REMARK   36  A    between atoms: _83  and  _86
REMARK   37  A    between atoms: _86  and  _87
REMARK   38  A    between atoms: _87  and  _88
REMARK   39  A    between atoms: _88  and  _89
REMARK   40  A    between atoms: _89  and  _90
REMARK   41  A    between atoms: _94  and  _96
REMARK   42  A    between atoms: _96  and  _97
REMARK   43  A    between atoms: _96  and  _99
REMARK   44  A    between atoms: _99  and  _100
REMARK   45  A    between atoms: _100  and  _101
REMARK   46  A    between atoms: _106  and  _108
REMARK   47  A    between atoms: _108  and  _109
REMARK   48  A    between atoms: _108  and  _111
REMARK   49  A    between atoms: _111  and  _112
REMARK   50  A    between atoms: _112  and  _113
REMARK   51  A    between atoms: _118  and  _120
REMARK   52  A    between atoms: _120  and  _121
REMARK   53  A    between atoms: _120  and  _123
REMARK   54  A    between atoms: _123  and  _124
REMARK   55  A    between atoms: _124  and  _125
REMARK   56  A    between atoms: _128  and  _130
REMARK   57  A    between atoms: _130  and  _131
REMARK   58  A    between atoms: _130  and  _133
REMARK   59  A    between atoms: _133  and  _134
REMARK   60  A    between atoms: _134  and  _135
REMARK   61  A    between atoms: _135  and  _136
REMARK   62  A    between atoms: _136  and  _137
REMARK   63  A    between atoms: _141  and  _143
REMARK   64  A    between atoms: _143  and  _144
REMARK   65  A    between atoms: _143  and  _146
REMARK   66  A    between atoms: _146  and  _147
REMARK   67  A    between atoms: _150  and  _152
REMARK   68  A    between atoms: _152  and  _153
REMARK   69  A    between atoms: _152  and  _155
REMARK   70  A    between atoms: _155  and  _156
REMARK   71  A    between atoms: _167  and  _168
REMARK   72  A    between atoms: _173  and  _175
REMARK   73  A    between atoms: _175  and  _176
REMARK   74  A    between atoms: _175  and  _178
REMARK   75  A    between atoms: _178  and  _179
REMARK   76  A    between atoms: _184  and  _186
REMARK   77  A    between atoms: _186  and  _187
REMARK   78  A    between atoms: _186  and  _189
REMARK   79  A    between atoms: _189  and  _190
REMARK   80  A    between atoms: _193  and  _195
REMARK   81  A    between atoms: _195  and  _196
REMARK   82  A    between atoms: _195  and  _198
REMARK   83  A    between atoms: _198  and  _199
REMARK   84  A    between atoms: _199  and  _200
REMARK   85  A    between atoms: _200  and  _201
REMARK   86  A    between atoms: _210  and  _212
REMARK   87  A    between atoms: _212  and  _213
REMARK   88  A    between atoms: _212  and  _215
REMARK   89  A    between atoms: _215  and  _216
REMARK   90  A    between atoms: _219  and  _221
REMARK   91  A    between atoms: _221  and  _222
REMARK   92  A    between atoms: _221  and  _224
REMARK   93  A    between atoms: _224  and  _225
REMARK   94  A    between atoms: _225  and  _226
REMARK   95  A    between atoms: _229  and  _231
REMARK   96  A    between atoms: _231  and  _232
REMARK   97  A    between atoms: _231  and  _234
REMARK   98  A    between atoms: _234  and  _235
REMARK   99  A    between atoms: _235  and  _236
REMARK  100  A    between atoms: _236  and  _237
REMARK  101  A    between atoms: _237  and  _238
REMARK  102  A    between atoms: _242  and  _244
REMARK  103  A    between atoms: _244  and  _245
REMARK  104  A    between atoms: _248  and  _250
REMARK  105  A    between atoms: _250  and  _251
REMARK  106  A    between atoms: _250  and  _253
REMARK  107  A    between atoms: _253  and  _254
REMARK  108  A    between atoms: _254  and  _255
REMARK  109  A    between atoms: _258  and  _260
REMARK  110  A    between atoms: _260  and  _261
REMARK  111  A    between atoms: _260  and  _263
REMARK  112  A    between atoms: _263  and  _264
REMARK  113  A    between atoms: _266  and  _268
REMARK  114  A    between atoms: _268  and  _269
REMARK  115  A    between atoms: _268  and  _271
REMARK  116  A    between atoms: _274  and  _276
REMARK  117  A    between atoms: _276  and  _277
REMARK  118  A    between atoms: _276  and  _279
REMARK  119  A    between atoms: _279  and  _280
REMARK  120  A    between atoms: _280  and  _281
REMARK  121  A    between atoms: _284  and  _286
REMARK  122  A    between atoms: _286  and  _287
REMARK  123  A    between atoms: _286  and  _289
REMARK  124  A    between atoms: _289  and  _290
REMARK  125  A    between atoms: _295  and  _297
REMARK  126  A    between atoms: _297  and  _298
REMARK  127  A    between atoms: _297  and  _300
REMARK  128  A    between atoms: _300  and  _301
REMARK  129  A    between atoms: _306  and  _308
REMARK  130  A    between atoms: _308  and  _309
REMARK  131  A    between atoms: _308  and  _311
REMARK  132  A    between atoms: _311  and  _312
REMARK  133  A    between atoms: _318  and  _320
REMARK  134  A    between atoms: _320  and  _321
REMARK  135  A    between atoms: _320  and  _323
REMARK  136  A    between atoms: _323  and  _324
REMARK  137  A    between atoms: _329  and  _330
REMARK  138  A    between atoms: _332  and  _334
REMARK  139  A    between atoms: _334  and  _335
REMARK  140  A    between atoms: _334  and  _337
REMARK  141  A    between atoms: _337  and  _338
REMARK  142  A    between atoms: _343  and  _344
REMARK  143  A    between atoms: _346  and  _348
REMARK  144  A    between atoms: _348  and  _349
REMARK  145  A    between atoms: _348  and  _351
REMARK  146  A    between atoms: _351  and  _352
REMARK  147  A    between atoms: _355  and  _357
REMARK  148  A    between atoms: _357  and  _358
REMARK  149  A    between atoms: _357  and  _360
REMARK  150  A    between atoms: _360  and  _361
REMARK  151  A    between atoms: _364  and  _366
REMARK  152  A    between atoms: _366  and  _367
REMARK  153  A    between atoms: _366  and  _369
REMARK  154  A    between atoms: _369  and  _370
REMARK  155  A    between atoms: _370  and  _371
REMARK  156  A    between atoms: _371  and  _372
REMARK  157  A    between atoms: _372  and  _373
REMARK  158  A    between atoms: _377  and  _379
REMARK  159  A    between atoms: _379  and  _380
REMARK  160  A    between atoms: _383  and  _385
REMARK  161  A    between atoms: _385  and  _386
REMARK  162  A    between atoms: _385  and  _388
REMARK  163  A    between atoms: _388  and  _389
REMARK  164  A    between atoms: _392  and  _394
REMARK  165  A    between atoms: _394  and  _395
REMARK  166  A    between atoms: _394  and  _397
REMARK  167  A    between atoms: _397  and  _398
REMARK  168  A    between atoms: _401  and  _403
REMARK  169  A    between atoms: _403  and  _404
REMARK  170  A    between atoms: _403  and  _406
REMARK  171  A    between atoms: _409  and  _411
REMARK  172  A    between atoms: _411  and  _412
REMARK  173  A    between atoms: _411  and  _414
REMARK  174  A    between atoms: _414  and  _415
REMARK  175  A    between atoms: _420  and  _422
REMARK  176  A    between atoms: _422  and  _423
REMARK  177  A    between atoms: _422  and  _425
REMARK  178  A    between atoms: _425  and  _426
REMARK  179  A    between atoms: _431  and  _433
REMARK  180  A    between atoms: _433  and  _434
REMARK  181  A    between atoms: _437  and  _438
REMARK  182  A    between atoms: _443  and  _445
REMARK  183  A    between atoms: _445  and  _446
REMARK  184  A    between atoms: _445  and  _448
REMARK  185  A    between atoms: _448  and  _449
REMARK  186  A    between atoms: _459  and  _461
REMARK  187  A    between atoms: _461  and  _462
REMARK  188  A    between atoms: _465  and  _467
REMARK  189  A    between atoms: _467  and  _468
REMARK  190  A    between atoms: _467  and  _470
REMARK  191  A    between atoms: _470  and  _471
REMARK  192  A    between atoms: _476  and  _477
REMARK  193  A    between atoms: _479  and  _481
REMARK  194  A    between atoms: _481  and  _482
REMARK  195  A    between atoms: _481  and  _484
REMARK  196  A    between atoms: _484  and  _485
REMARK  197  A    between atoms: _491  and  _493
REMARK  198  A    between atoms: _493  and  _494
REMARK  199  A    between atoms: _493  and  _496
REMARK  200  A    between atoms: _496  and  _497
REMARK  201  A    between atoms: _500  and  _502
REMARK  202  A    between atoms: _502  and  _503
REMARK  203  A    between atoms: _505  and  _507
REMARK  204  A    between atoms: _507  and  _508
REMARK  205  A    between atoms: _507  and  _510
REMARK  206  A    between atoms: _513  and  _515
REMARK  207  A    between atoms: _515  and  _516
REMARK  208  A    between atoms: _515  and  _518
REMARK  209  A    between atoms: _518  and  _519
REMARK  210  A    between atoms: _519  and  _520
REMARK  211  A    between atoms: _520  and  _521
REMARK  212  A    between atoms: _521  and  _522
REMARK  213  A    between atoms: _526  and  _528
REMARK  214  A    between atoms: _528  and  _529
REMARK  215  A    between atoms: _528  and  _531
REMARK  216  A    between atoms: _531  and  _532
REMARK  217  A    between atoms: _532  and  _533
REMARK  218  A    between atoms: _533  and  _534
REMARK  219  A    between atoms: _543  and  _545
REMARK  220  A    between atoms: _545  and  _546
REMARK  221  A    between atoms: _545  and  _548
REMARK  222  A    between atoms: _548  and  _549
REMARK  223  A    between atoms: _549  and  _550
REMARK  224  A    between atoms: _553  and  _555
REMARK  225  A    between atoms: _555  and  _556
REMARK  226  A    between atoms: _555  and  _558
REMARK  227  A    between atoms: _558  and  _559
REMARK  228  A    between atoms: _559  and  _560
REMARK  229  A    between atoms: _563  and  _564
REMARK  230  A    between atoms: _569  and  _571
REMARK  231  A    between atoms: _571  and  _572
REMARK  232  A    between atoms: _571  and  _574
REMARK  233  A    between atoms: _574  and  _575
REMARK  234  A    between atoms: _575  and  _576
REMARK  235  A    between atoms: _578  and  _580
REMARK  236  A    between atoms: _580  and  _581
REMARK  237  A    between atoms: _583  and  _585
REMARK  238  A    between atoms: _585  and  _586
REMARK  239  A    between atoms: _585  and  _588
REMARK  240  A    between atoms: _591  and  _593
REMARK  241  A    between atoms: _593  and  _594
REMARK  242  A    between atoms: _593  and  _596
REMARK  243  A    between atoms: _596  and  _597
REMARK  244  A    between atoms: _607  and  _609
REMARK  245  A    between atoms: _609  and  _610
REMARK  246  A    between atoms: _609  and  _612
REMARK  247  A    between atoms: _612  and  _613
REMARK  248  A    between atoms: _613  and  _614
REMARK  249  A    between atoms: _618  and  _619
REMARK  250  A    between atoms: _624  and  _626
REMARK  251  A    between atoms: _626  and  _627
REMARK  252  A    between atoms: _626  and  _629
REMARK  253  A    between atoms: _629  and  _630
REMARK  254  A    between atoms: _633  and  _635
REMARK  255  A    between atoms: _635  and  _636
REMARK  256  A    between atoms: _635  and  _638
REMARK  257  A    between atoms: _638  and  _639
REMARK  258  A    between atoms: _644  and  _646
REMARK  259  A    between atoms: _646  and  _647
REMARK  260  A    between atoms: _646  and  _649
REMARK  261  A    between atoms: _649  and  _650
REMARK                            x       y       z     vdW  Elec       q    Type
REMARK                         _______ _______ _______ _____ _____    ______ ____
ROOT
ATOM      1  O   HOH     1      24.401   6.619  11.100  0.00  0.00    +0.000 OA
ENDROOT
TORSDOF 0
REMARK  Name = ../refined-set-2016/2zym/2zym_pocket.pdb
REMARK  261 active torsions:
REMARK  status: ('A' for Active; 'I' for Inactive)
REMARK    1  A    between atoms: _1  and  _3
REMARK    2  A    between atoms: _3  and  _4
REMARK    3  A    between atoms: _3  and  _6
REMARK    4  A    between atoms: _6  and  _7
REMARK    5  A    between atoms: _7  and  _8
REMARK    6  A    between atoms: _11  and  _13
REMARK    7  A    between atoms: _13  and  _14
REMARK    8  A    between atoms: _13  and  _16
REMARK    9  A    between atoms: _16  and  _17
REMARK   10  A    between atoms: _22  and  _24
REMARK   11  A    between atoms: _24  and  _25
REMARK   12  A    between atoms: _28  and  _30
REMARK   13  A    between atoms: _30  and  _31
REMARK   14  A    between atoms: _30  and  _33
REMARK   15  A    between atoms: _33  and  _34
REMARK   16  A    between atoms: _37  and  _39
REMARK   17  A    between atoms: _39  and  _40
REMARK   18  A    between atoms: _39  and  _42
REMARK   19  A    between atoms: _42  and  _43
REMARK   20  A    between atoms: _43  and  _44
REMARK   21  A    between atoms: _49  and  _51
REMARK   22  A    between atoms: _51  and  _52
REMARK   23  A    between atoms: _51  and  _54
REMARK   24  A    between atoms: _57  and  _59
REMARK   25  A    between atoms: _59  and  _60
REMARK   26  A    between atoms: _63  and  _65
REMARK   27  A    between atoms: _65  and  _66
REMARK   28  A    between atoms: _65  and  _68
REMARK   29  A    between atoms: _68  and  _69
REMARK   30  A    between atoms: _72  and  _74
REMARK   31  A    between atoms: _74  and  _75
REMARK   32  A    between atoms: _74  and  _77
REMARK   33  A    between atoms: _77  and  _78
REMARK   34  A    between atoms: _81  and  _83
REMARK   35  A    between atoms: _83  and  _84
REMARK   36  A    between atoms: _83  and  _86
REMARK   37  A    between atoms: _86  and  _87
REMARK   38  A    between atoms: _87  and  _88
REMARK   39  A    between atoms: _88  and  _89
REMARK   40  A    between atoms: _89  and  _90
REMARK   41  A    between atoms: _94  and  _96
REMARK   42  A    between atoms: _96  and  _97
REMARK   43  A    between atoms: _96  and  _99
REMARK   44  A    between atoms: _99  and  _100
REMARK   45  A    between atoms: _100  and  _101
REMARK   46  A    between atoms: _106  and  _108
REMARK   47  A    between atoms: _108  and  _109
REMARK   48  A    between atoms: _108  and  _111
REMARK   49  A    between atoms: _111  and  _112
REMARK   50  A    between atoms: _112  and  _113
REMARK   51  A    between atoms: _118  and  _120
REMARK   52  A    between atoms: _120  and  _121
REMARK   53  A    between atoms: _120  and  _123
REMARK   54  A    between atoms: _123  and  _124
REMARK   55  A    between atoms: _124  and  _125
REMARK   56  A    between atoms: _128  and  _130
REMARK   57  A    between atoms: _130  and  _131
REMARK   58  A    between atoms: _130  and  _133
REMARK   59  A    between atoms: _133  and  _134
REMARK   60  A    between atoms: _134  and  _135
REMARK   61  A    between atoms: _135  and  _136
REMARK   62  A    between atoms: _136  and  _137
REMARK   63  A    between atoms: _141  and  _143
REMARK   64  A    between atoms: _143  and  _144
REMARK   65  A    between atoms: _143  and  _146
REMARK   66  A    between atoms: _146  and  _147
REMARK   67  A    between atoms: _150  and  _152
REMARK   68  A    between atoms: _152  and  _153
REMARK   69  A    between atoms: _152  and  _155
REMARK   70  A    between atoms: _155  and  _156
REMARK   71  A    between atoms: _167  and  _168
REMARK   72  A    between atoms: _173  and  _175
REMARK   73  A    between atoms: _175  and  _176
REMARK   74  A    between atoms: _175  and  _178
REMARK   75  A    between atoms: _178  and  _179
REMARK   76  A    between atoms: _184  and  _186
REMARK   77  A    between atoms: _186  and  _187
REMARK   78  A    between atoms: _186  and  _189
REMARK   79  A    between atoms: _189  and  _190
REMARK   80  A    between atoms: _193  and  _195
REMARK   81  A    between atoms: _195  and  _196
REMARK   82  A    between atoms: _195  and  _198
REMARK   83  A    between atoms: _198  and  _199
REMARK   84  A    between atoms: _199  and  _200
REMARK   85  A    between atoms: _200  and  _201
REMARK   86  A    between atoms: _210  and  _212
REMARK   87  A    between atoms: _212  and  _213
REMARK   88  A    between atoms: _212  and  _215
REMARK   89  A    between atoms: _215  and  _216
REMARK   90  A    between atoms: _219  and  _221
REMARK   91  A    between atoms: _221  and  _222
REMARK   92  A    between atoms: _221  and  _224
REMARK   93  A    between atoms: _224  and  _225
REMARK   94  A    between atoms: _225  and  _226
REMARK   95  A    between atoms: _229  and  _231
REMARK   96  A    between atoms: _231  and  _232
REMARK   97  A    between atoms: _231  and  _234
REMARK   98  A    between atoms: _234  and  _235
REMARK   99  A    between atoms: _235  and  _236
REMARK  100  A    between atoms: _236  and  _237
REMARK  101  A    between atoms: _237  and  _238
REMARK  102  A    between atoms: _242  and  _244
REMARK  103  A    between atoms: _244  and  _245
REMARK  104  A    between atoms: _248  and  _250
REMARK  105  A    between atoms: _250  and  _251
REMARK  106  A    between atoms: _250  and  _253
REMARK  107  A    between atoms: _253  and  _254
REMARK  108  A    between atoms: _254  and  _255
REMARK  109  A    between atoms: _258  and  _260
REMARK  110  A    between atoms: _260  and  _261
REMARK  111  A    between atoms: _260  and  _263
REMARK  112  A    between atoms: _263  and  _264
REMARK  113  A    between atoms: _266  and  _268
REMARK  114  A    between atoms: _268  and  _269
REMARK  115  A    between atoms: _268  and  _271
REMARK  116  A    between atoms: _274  and  _276
REMARK  117  A    between atoms: _276  and  _277
REMARK  118  A    between atoms: _276  and  _279
REMARK  119  A    between atoms: _279  and  _280
REMARK  120  A    between atoms: _280  and  _281
REMARK  121  A    between atoms: _284  and  _286
REMARK  122  A    between atoms: _286  and  _287
REMARK  123  A    between atoms: _286  and  _289
REMARK  124  A    between atoms: _289  and  _290
REMARK  125  A    between atoms: _295  and  _297
REMARK  126  A    between atoms: _297  and  _298
REMARK  127  A    between atoms: _297  and  _300
REMARK  128  A    between atoms: _300  and  _301
REMARK  129  A    between atoms: _306  and  _308
REMARK  130  A    between atoms: _308  and  _309
REMARK  131  A    between atoms: _308  and  _311
REMARK  132  A    between atoms: _311  and  _312
REMARK  133  A    between atoms: _318  and  _320
REMARK  134  A    between atoms: _320  and  _321
REMARK  135  A    between atoms: _320  and  _323
REMARK  136  A    between atoms: _323  and  _324
REMARK  137  A    between atoms: _329  and  _330
REMARK  138  A    between atoms: _332  and  _334
REMARK  139  A    between atoms: _334  and  _335
REMARK  140  A    between atoms: _334  and  _337
REMARK  141  A    between atoms: _337  and  _338
REMARK  142  A    between atoms: _343  and  _344
REMARK  143  A    between atoms: _346  and  _348
REMARK  144  A    between atoms: _348  and  _349
REMARK  145  A    between atoms: _348  and  _351
REMARK  146  A    between atoms: _351  and  _352
REMARK  147  A    between atoms: _355  and  _357
REMARK  148  A    between atoms: _357  and  _358
REMARK  149  A    between atoms: _357  and  _360
REMARK  150  A    between atoms: _360  and  _361
REMARK  151  A    between atoms: _364  and  _366
REMARK  152  A    between atoms: _366  and  _367
REMARK  153  A    between atoms: _366  and  _369
REMARK  154  A    between atoms: _369  and  _370
REMARK  155  A    between atoms: _370  and  _371
REMARK  156  A    between atoms: _371  and  _372
REMARK  157  A    between atoms: _372  and  _373
REMARK  158  A    between atoms: _377  and  _379
REMARK  159  A    between atoms: _379  and  _380
REMARK  160  A    between atoms: _383  and  _385
REMARK  161  A    between atoms: _385  and  _386
REMARK  162  A    between atoms: _385  and  _388
REMARK  163  A    between atoms: _388  and  _389
REMARK  164  A    between atoms: _392  and  _394
REMARK  165  A    between atoms: _394  and  _395
REMARK  166  A    between atoms: _394  and  _397
REMARK  167  A    between atoms: _397  and  _398
REMARK  168  A    between atoms: _401  and  _403
REMARK  169  A    between atoms: _403  and  _404
REMARK  170  A    between atoms: _403  and  _406
REMARK  171  A    between atoms: _409  and  _411
REMARK  172  A    between atoms: _411  and  _412
REMARK  173  A    between atoms: _411  and  _414
REMARK  174  A    between atoms: _414  and  _415
REMARK  175  A    between atoms: _420  and  _422
REMARK  176  A    between atoms: _422  and  _423
REMARK  177  A    between atoms: _422  and  _425
REMARK  178  A    between atoms: _425  and  _426
REMARK  179  A    between atoms: _431  and  _433
REMARK  180  A    between atoms: _433  and  _434
REMARK  181  A    between atoms: _437  and  _438
REMARK  182  A    between atoms: _443  and  _445
REMARK  183  A    between atoms: _445  and  _446
REMARK  184  A    between atoms: _445  and  _448
REMARK  185  A    between atoms: _448  and  _449
REMARK  186  A    between atoms: _459  and  _461
REMARK  187  A    between atoms: _461  and  _462
REMARK  188  A    between atoms: _465  and  _467
REMARK  189  A    between atoms: _467  and  _468
REMARK  190  A    between atoms: _467  and  _470
REMARK  191  A    between atoms: _470  and  _471
REMARK  192  A    between atoms: _476  and  _477
REMARK  193  A    between atoms: _479  and  _481
REMARK  194  A    between atoms: _481  and  _482
REMARK  195  A    between atoms: _481  and  _484
REMARK  196  A    between atoms: _484  and  _485
REMARK  197  A    between atoms: _491  and  _493
REMARK  198  A    between atoms: _493  and  _494
REMARK  199  A    between atoms: _493  and  _496
REMARK  200  A    between atoms: _496  and  _497
REMARK  201  A    between atoms: _500  and  _502
REMARK  202  A    between atoms: _502  and  _503
REMARK  203  A    between atoms: _505  and  _507
REMARK  204  A    between atoms: _507  and  _508
REMARK  205  A    between atoms: _507  and  _510
REMARK  206  A    between atoms: _513  and  _515
REMARK  207  A    between atoms: _515  and  _516
REMARK  208  A    between atoms: _515  and  _518
REMARK  209  A    between atoms: _518  and  _519
REMARK  210  A    between atoms: _519  and  _520
REMARK  211  A    between atoms: _520  and  _521
REMARK  212  A    between atoms: _521  and  _522
REMARK  213  A    between atoms: _526  and  _528
REMARK  214  A    between atoms: _528  and  _529
REMARK  215  A    between atoms: _528  and  _531
REMARK  216  A    between atoms: _531  and  _532
REMARK  217  A    between atoms: _532  and  _533
REMARK  218  A    between atoms: _533  and  _534
REMARK  219  A    between atoms: _543  and  _545
REMARK  220  A    between atoms: _545  and  _546
REMARK  221  A    between atoms: _545  and  _548
REMARK  222  A    between atoms: _548  and  _549
REMARK  223  A    between atoms: _549  and  _550
REMARK  224  A    between atoms: _553  and  _555
REMARK  225  A    between atoms: _555  and  _556
REMARK  226  A    between atoms: _555  and  _558
REMARK  227  A    between atoms: _558  and  _559
REMARK  228  A    between atoms: _559  and  _560
REMARK  229  A    between atoms: _563  and  _564
REMARK  230  A    between atoms: _569  and  _571
REMARK  231  A    between atoms: _571  and  _572
REMARK  232  A    between atoms: _571  and  _574
REMARK  233  A    between atoms: _574  and  _575
REMARK  234  A    between atoms: _575  and  _576
REMARK  235  A    between atoms: _578  and  _580
REMARK  236  A    between atoms: _580  and  _581
REMARK  237  A    between atoms: _583  and  _585
REMARK  238  A    between atoms: _585  and  _586
REMARK  239  A    between atoms: _585  and  _588
REMARK  240  A    between atoms: _591  and  _593
REMARK  241  A    between atoms: _593  and  _594
REMARK  242  A    between atoms: _593  and  _596
REMARK  243  A    between atoms: _596  and  _597
REMARK  244  A    between atoms: _607  and  _609
REMARK  245  A    between atoms: _609  and  _610
REMARK  246  A    between atoms: _609  and  _612
REMARK  247  A    between atoms: _612  and  _613
REMARK  248  A    between atoms: _613  and  _614
REMARK  249  A    between atoms: _618  and  _619
REMARK  250  A    between atoms: _624  and  _626
REMARK  251  A    between atoms: _626  and  _627
REMARK  252  A    between atoms: _626  and  _629
REMARK  253  A    between atoms: _629  and  _630
REMARK  254  A    between atoms: _633  and  _635
REMARK  255  A    between atoms: _635  and  _636
REMARK  256  A    between atoms: _635  and  _638
REMARK  257  A    between atoms: _638  and  _639
REMARK  258  A    between atoms: _644  and  _646
REMARK  259  A    between atoms: _646  and  _647
REMARK  260  A    between atoms: _646  and  _649
REMARK  261  A    between atoms: _649  and  _650
REMARK                            x       y       z     vdW  Elec       q    Type
REMARK                         _______ _______ _______ _____ _____    ______ ____
ROOT
ATOM      1  O   HOH     1      12.886   7.599  12.874  0.00  0.00    +0.000 OA
ENDROOT
TORSDOF 0
REMARK  Name = ../refined-set-2016/2zym/2zym_pocket.pdb
REMARK  261 active torsions:
REMARK  status: ('A' for Active; 'I' for Inactive)
REMARK    1  A    between atoms: _1  and  _3
REMARK    2  A    between atoms: _3  and  _4
REMARK    3  A    between atoms: _3  and  _6
REMARK    4  A    between atoms: _6  and  _7
REMARK    5  A    between atoms: _7  and  _8
REMARK    6  A    between atoms: _11  and  _13
REMARK    7  A    between atoms: _13  and  _14
REMARK    8  A    between atoms: _13  and  _16
REMARK    9  A    between atoms: _16  and  _17
REMARK   10  A    between atoms: _22  and  _24
REMARK   11  A    between atoms: _24  and  _25
REMARK   12  A    between atoms: _28  and  _30
REMARK   13  A    between atoms: _30  and  _31
REMARK   14  A    between atoms: _30  and  _33
REMARK   15  A    between atoms: _33  and  _34
REMARK   16  A    between atoms: _37  and  _39
REMARK   17  A    between atoms: _39  and  _40
REMARK   18  A    between atoms: _39  and  _42
REMARK   19  A    between atoms: _42  and  _43
REMARK   20  A    between atoms: _43  and  _44
REMARK   21  A    between atoms: _49  and  _51
REMARK   22  A    between atoms: _51  and  _52
REMARK   23  A    between atoms: _51  and  _54
REMARK   24  A    between atoms: _57  and  _59
REMARK   25  A    between atoms: _59  and  _60
REMARK   26  A    between atoms: _63  and  _65
REMARK   27  A    between atoms: _65  and  _66
REMARK   28  A    between atoms: _65  and  _68
REMARK   29  A    between atoms: _68  and  _69
REMARK   30  A    between atoms: _72  and  _74
REMARK   31  A    between atoms: _74  and  _75
REMARK   32  A    between atoms: _74  and  _77
REMARK   33  A    between atoms: _77  and  _78
REMARK   34  A    between atoms: _81  and  _83
REMARK   35  A    between atoms: _83  and  _84
REMARK   36  A    between atoms: _83  and  _86
REMARK   37  A    between atoms: _86  and  _87
REMARK   38  A    between atoms: _87  and  _88
REMARK   39  A    between atoms: _88  and  _89
REMARK   40  A    between atoms: _89  and  _90
REMARK   41  A    between atoms: _94  and  _96
REMARK   42  A    between atoms: _96  and  _97
REMARK   43  A    between atoms: _96  and  _99
REMARK   44  A    between atoms: _99  and  _100
REMARK   45  A    between atoms: _100  and  _101
REMARK   46  A    between atoms: _106  and  _108
REMARK   47  A    between atoms: _108  and  _109
REMARK   48  A    between atoms: _108  and  _111
REMARK   49  A    between atoms: _111  and  _112
REMARK   50  A    between atoms: _112  and  _113
REMARK   51  A    between atoms: _118  and  _120
REMARK   52  A    between atoms: _120  and  _121
REMARK   53  A    between atoms: _120  and  _123
REMARK   54  A    between atoms: _123  and  _124
REMARK   55  A    between atoms: _124  and  _125
REMARK   56  A    between atoms: _128  and  _130
REMARK   57  A    between atoms: _130  and  _131
REMARK   58  A    between atoms: _130  and  _133
REMARK   59  A    between atoms: _133  and  _134
REMARK   60  A    between atoms: _134  and  _135
REMARK   61  A    between atoms: _135  and  _136
REMARK   62  A    between atoms: _136  and  _137
REMARK   63  A    between atoms: _141  and  _143
REMARK   64  A    between atoms: _143  and  _144
REMARK   65  A    between atoms: _143  and  _146
REMARK   66  A    between atoms: _146  and  _147
REMARK   67  A    between atoms: _150  and  _152
REMARK   68  A    between atoms: _152  and  _153
REMARK   69  A    between atoms: _152  and  _155
REMARK   70  A    between atoms: _155  and  _156
REMARK   71  A    between atoms: _167  and  _168
REMARK   72  A    between atoms: _173  and  _175
REMARK   73  A    between atoms: _175  and  _176
REMARK   74  A    between atoms: _175  and  _178
REMARK   75  A    between atoms: _178  and  _179
REMARK   76  A    between atoms: _184  and  _186
REMARK   77  A    between atoms: _186  and  _187
REMARK   78  A    between atoms: _186  and  _189
REMARK   79  A    between atoms: _189  and  _190
REMARK   80  A    between atoms: _193  and  _195
REMARK   81  A    between atoms: _195  and  _196
REMARK   82  A    between atoms: _195  and  _198
REMARK   83  A    between atoms: _198  and  _199
REMARK   84  A    between atoms: _199  and  _200
REMARK   85  A    between atoms: _200  and  _201
REMARK   86  A    between atoms: _210  and  _212
REMARK   87  A    between atoms: _212  and  _213
REMARK   88  A    between atoms: _212  and  _215
REMARK   89  A    between atoms: _215  and  _216
REMARK   90  A    between atoms: _219  and  _221
REMARK   91  A    between atoms: _221  and  _222
REMARK   92  A    between atoms: _221  and  _224
REMARK   93  A    between atoms: _224  and  _225
REMARK   94  A    between atoms: _225  and  _226
REMARK   95  A    between atoms: _229  and  _231
REMARK   96  A    between atoms: _231  and  _232
REMARK   97  A    between atoms: _231  and  _234
REMARK   98  A    between atoms: _234  and  _235
REMARK   99  A    between atoms: _235  and  _236
REMARK  100  A    between atoms: _236  and  _237
REMARK  101  A    between atoms: _237  and  _238
REMARK  102  A    between atoms: _242  and  _244
REMARK  103  A    between atoms: _244  and  _245
REMARK  104  A    between atoms: _248  and  _250
REMARK  105  A    between atoms: _250  and  _251
REMARK  106  A    between atoms: _250  and  _253
REMARK  107  A    between atoms: _253  and  _254
REMARK  108  A    between atoms: _254  and  _255
REMARK  109  A    between atoms: _258  and  _260
REMARK  110  A    between atoms: _260  and  _261
REMARK  111  A    between atoms: _260  and  _263
REMARK  112  A    between atoms: _263  and  _264
REMARK  113  A    between atoms: _266  and  _268
REMARK  114  A    between atoms: _268  and  _269
REMARK  115  A    between atoms: _268  and  _271
REMARK  116  A    between atoms: _274  and  _276
REMARK  117  A    between atoms: _276  and  _277
REMARK  118  A    between atoms: _276  and  _279
REMARK  119  A    between atoms: _279  and  _280
REMARK  120  A    between atoms: _280  and  _281
REMARK  121  A    between atoms: _284  and  _286
REMARK  122  A    between atoms: _286  and  _287
REMARK  123  A    between atoms: _286  and  _289
REMARK  124  A    between atoms: _289  and  _290
REMARK  125  A    between atoms: _295  and  _297
REMARK  126  A    between atoms: _297  and  _298
REMARK  127  A    between atoms: _297  and  _300
REMARK  128  A    between atoms: _300  and  _301
REMARK  129  A    between atoms: _306  and  _308
REMARK  130  A    between atoms: _308  and  _309
REMARK  131  A    between atoms: _308  and  _311
REMARK  132  A    between atoms: _311  and  _312
REMARK  133  A    between atoms: _318  and  _320
REMARK  134  A    between atoms: _320  and  _321
REMARK  135  A    between atoms: _320  and  _323
REMARK  136  A    between atoms: _323  and  _324
REMARK  137  A    between atoms: _329  and  _330
REMARK  138  A    between atoms: _332  and  _334
REMARK  139  A    between atoms: _334  and  _335
REMARK  140  A    between atoms: _334  and  _337
REMARK  141  A    between atoms: _337  and  _338
REMARK  142  A    between atoms: _343  and  _344
REMARK  143  A    between atoms: _346  and  _348
REMARK  144  A    between atoms: _348  and  _349
REMARK  145  A    between atoms: _348  and  _351
REMARK  146  A    between atoms: _351  and  _352
REMARK  147  A    between atoms: _355  and  _357
REMARK  148  A    between atoms: _357  and  _358
REMARK  149  A    between atoms: _357  and  _360
REMARK  150  A    between atoms: _360  and  _361
REMARK  151  A    between atoms: _364  and  _366
REMARK  152  A    between atoms: _366  and  _367
REMARK  153  A    between atoms: _366  and  _369
REMARK  154  A    between atoms: _369  and  _370
REMARK  155  A    between atoms: _370  and  _371
REMARK  156  A    between atoms: _371  and  _372
REMARK  157  A    between atoms: _372  and  _373
REMARK  158  A    between atoms: _377  and  _379
REMARK  159  A    between atoms: _379  and  _380
REMARK  160  A    between atoms: _383  and  _385
REMARK  161  A    between atoms: _385  and  _386
REMARK  162  A    between atoms: _385  and  _388
REMARK  163  A    between atoms: _388  and  _389
REMARK  164  A    between atoms: _392  and  _394
REMARK  165  A    between atoms: _394  and  _395
REMARK  166  A    between atoms: _394  and  _397
REMARK  167  A    between atoms: _397  and  _398
REMARK  168  A    between atoms: _401  and  _403
REMARK  169  A    between atoms: _403  and  _404
REMARK  170  A    between atoms: _403  and  _406
REMARK  171  A    between atoms: _409  and  _411
REMARK  172  A    between atoms: _411  and  _412
REMARK  173  A    between atoms: _411  and  _414
REMARK  174  A    between atoms: _414  and  _415
REMARK  175  A    between atoms: _420  and  _422
REMARK  176  A    between atoms: _422  and  _423
REMARK  177  A    between atoms: _422  and  _425
REMARK  178  A    between atoms: _425  and  _426
REMARK  179  A    between atoms: _431  and  _433
REMARK  180  A    between atoms: _433  and  _434
REMARK  181  A    between atoms: _437  and  _438
REMARK  182  A    between atoms: _443  and  _445
REMARK  183  A    between atoms: _445  and  _446
REMARK  184  A    between atoms: _445  and  _448
REMARK  185  A    between atoms: _448  and  _449
REMARK  186  A    between atoms: _459  and  _461
REMARK  187  A    between atoms: _461  and  _462
REMARK  188  A    between atoms: _465  and  _467
REMARK  189  A    between atoms: _467  and  _468
REMARK  190  A    between atoms: _467  and  _470
REMARK  191  A    between atoms: _470  and  _471
REMARK  192  A    between atoms: _476  and  _477
REMARK  193  A    between atoms: _479  and  _481
REMARK  194  A    between atoms: _481  and  _482
REMARK  195  A    between atoms: _481  and  _484
REMARK  196  A    between atoms: _484  and  _485
REMARK  197  A    between atoms: _491  and  _493
REMARK  198  A    between atoms: _493  and  _494
REMARK  199  A    between atoms: _493  and  _496
REMARK  200  A    between atoms: _496  and  _497
REMARK  201  A    between atoms: _500  and  _502
REMARK  202  A    between atoms: _502  and  _503
REMARK  203  A    between atoms: _505  and  _507
REMARK  204  A    between atoms: _507  and  _508
REMARK  205  A    between atoms: _507  and  _510
REMARK  206  A    between atoms: _513  and  _515
REMARK  207  A    between atoms: _515  and  _516
REMARK  208  A    between atoms: _515  and  _518
REMARK  209  A    between atoms: _518  and  _519
REMARK  210  A    between atoms: _519  and  _520
REMARK  211  A    between atoms: _520  and  _521
REMARK  212  A    between atoms: _521  and  _522
REMARK  213  A    between atoms: _526  and  _528
REMARK  214  A    between atoms: _528  and  _529
REMARK  215  A    between atoms: _528  and  _531
REMARK  216  A    between atoms: _531  and  _532
REMARK  217  A    between atoms: _532  and  _533
REMARK  218  A    between atoms: _533  and  _534
REMARK  219  A    between atoms: _543  and  _545
REMARK  220  A    between atoms: _545  and  _546
REMARK  221  A    between atoms: _545  and  _548
REMARK  222  A    between atoms: _548  and  _549
REMARK  223  A    between atoms: _549  and  _550
REMARK  224  A    between atoms: _553  and  _555
REMARK  225  A    between atoms: _555  and  _556
REMARK  226  A    between atoms: _555  and  _558
REMARK  227  A    between atoms: _558  and  _559
REMARK  228  A    between atoms: _559  and  _560
REMARK  229  A    between atoms: _563  and  _564
REMARK  230  A    between atoms: _569  and  _571
REMARK  231  A    between atoms: _571  and  _572
REMARK  232  A    between atoms: _571  and  _574
REMARK  233  A    between atoms: _574  and  _575
REMARK  234  A    between atoms: _575  and  _576
REMARK  235  A    between atoms: _578  and  _580
REMARK  236  A    between atoms: _580  and  _581
REMARK  237  A    between atoms: _583  and  _585
REMARK  238  A    between atoms: _585  and  _586
REMARK  239  A    between atoms: _585  and  _588
REMARK  240  A    between atoms: _591  and  _593
REMARK  241  A    between atoms: _593  and  _594
REMARK  242  A    between atoms: _593  and  _596
REMARK  243  A    between atoms: _596  and  _597
REMARK  244  A    between atoms: _607  and  _609
REMARK  245  A    between atoms: _609  and  _610
REMARK  246  A    between atoms: _609  and  _612
REMARK  247  A    between atoms: _612  and  _613
REMARK  248  A    between atoms: _613  and  _614
REMARK  249  A    between atoms: _618  and  _619
REMARK  250  A    between atoms: _624  and  _626
REMARK  251  A    between atoms: _626  and  _627
REMARK  252  A    between atoms: _626  and  _629
REMARK  253  A    between atoms: _629  and  _630
REMARK  254  A    between atoms: _633  and  _635
REMARK  255  A    between atoms: _635  and  _636
REMARK  256  A    between atoms: _635  and  _638
REMARK  257  A    between atoms: _638  and  _639
REMARK  258  A    between atoms: _644  and  _646
REMARK  259  A    between atoms: _646  and  _647
REMARK  260  A    between atoms: _646  and  _649
REMARK  261  A    between atoms: _649  and  _650
REMARK                            x       y       z     vdW  Elec       q    Type
REMARK                         _______ _______ _______ _____ _____    ______ ____
ROOT
ATOM      1  O   HOH     1      12.062   3.590  15.555  0.00  0.00    +0.000 OA
ENDROOT
TORSDOF 0
REMARK  Name = ../refined-set-2016/2zym/2zym_pocket.pdb
REMARK  261 active torsions:
REMARK  status: ('A' for Active; 'I' for Inactive)
REMARK    1  A    between atoms: _1  and  _3
REMARK    2  A    between atoms: _3  and  _4
REMARK    3  A    between atoms: _3  and  _6
REMARK    4  A    between atoms: _6  and  _7
REMARK    5  A    between atoms: _7  and  _8
REMARK    6  A    between atoms: _11  and  _13
REMARK    7  A    between atoms: _13  and  _14
REMARK    8  A    between atoms: _13  and  _16
REMARK    9  A    between atoms: _16  and  _17
REMARK   10  A    between atoms: _22  and  _24
REMARK   11  A    between atoms: _24  and  _25
REMARK   12  A    between atoms: _28  and  _30
REMARK   13  A    between atoms: _30  and  _31
REMARK   14  A    between atoms: _30  and  _33
REMARK   15  A    between atoms: _33  and  _34
REMARK   16  A    between atoms: _37  and  _39
REMARK   17  A    between atoms: _39  and  _40
REMARK   18  A    between atoms: _39  and  _42
REMARK   19  A    between atoms: _42  and  _43
REMARK   20  A    between atoms: _43  and  _44
REMARK   21  A    between atoms: _49  and  _51
REMARK   22  A    between atoms: _51  and  _52
REMARK   23  A    between atoms: _51  and  _54
REMARK   24  A    between atoms: _57  and  _59
REMARK   25  A    between atoms: _59  and  _60
REMARK   26  A    between atoms: _63  and  _65
REMARK   27  A    between atoms: _65  and  _66
REMARK   28  A    between atoms: _65  and  _68
REMARK   29  A    between atoms: _68  and  _69
REMARK   30  A    between atoms: _72  and  _74
REMARK   31  A    between atoms: _74  and  _75
REMARK   32  A    between atoms: _74  and  _77
REMARK   33  A    between atoms: _77  and  _78
REMARK   34  A    between atoms: _81  and  _83
REMARK   35  A    between atoms: _83  and  _84
REMARK   36  A    between atoms: _83  and  _86
REMARK   37  A    between atoms: _86  and  _87
REMARK   38  A    between atoms: _87  and  _88
REMARK   39  A    between atoms: _88  and  _89
REMARK   40  A    between atoms: _89  and  _90
REMARK   41  A    between atoms: _94  and  _96
REMARK   42  A    between atoms: _96  and  _97
REMARK   43  A    between atoms: _96  and  _99
REMARK   44  A    between atoms: _99  and  _100
REMARK   45  A    between atoms: _100  and  _101
REMARK   46  A    between atoms: _106  and  _108
REMARK   47  A    between atoms: _108  and  _109
REMARK   48  A    between atoms: _108  and  _111
REMARK   49  A    between atoms: _111  and  _112
REMARK   50  A    between atoms: _112  and  _113
REMARK   51  A    between atoms: _118  and  _120
REMARK   52  A    between atoms: _120  and  _121
REMARK   53  A    between atoms: _120  and  _123
REMARK   54  A    between atoms: _123  and  _124
REMARK   55  A    between atoms: _124  and  _125
REMARK   56  A    between atoms: _128  and  _130
REMARK   57  A    between atoms: _130  and  _131
REMARK   58  A    between atoms: _130  and  _133
REMARK   59  A    between atoms: _133  and  _134
REMARK   60  A    between atoms: _134  and  _135
REMARK   61  A    between atoms: _135  and  _136
REMARK   62  A    between atoms: _136  and  _137
REMARK   63  A    between atoms: _141  and  _143
REMARK   64  A    between atoms: _143  and  _144
REMARK   65  A    between atoms: _143  and  _146
REMARK   66  A    between atoms: _146  and  _147
REMARK   67  A    between atoms: _150  and  _152
REMARK   68  A    between atoms: _152  and  _153
REMARK   69  A    between atoms: _152  and  _155
REMARK   70  A    between atoms: _155  and  _156
REMARK   71  A    between atoms: _167  and  _168
REMARK   72  A    between atoms: _173  and  _175
REMARK   73  A    between atoms: _175  and  _176
REMARK   74  A    between atoms: _175  and  _178
REMARK   75  A    between atoms: _178  and  _179
REMARK   76  A    between atoms: _184  and  _186
REMARK   77  A    between atoms: _186  and  _187
REMARK   78  A    between atoms: _186  and  _189
REMARK   79  A    between atoms: _189  and  _190
REMARK   80  A    between atoms: _193  and  _195
REMARK   81  A    between atoms: _195  and  _196
REMARK   82  A    between atoms: _195  and  _198
REMARK   83  A    between atoms: _198  and  _199
REMARK   84  A    between atoms: _199  and  _200
REMARK   85  A    between atoms: _200  and  _201
REMARK   86  A    between atoms: _210  and  _212
REMARK   87  A    between atoms: _212  and  _213
REMARK   88  A    between atoms: _212  and  _215
REMARK   89  A    between atoms: _215  and  _216
REMARK   90  A    between atoms: _219  and  _221
REMARK   91  A    between atoms: _221  and  _222
REMARK   92  A    between atoms: _221  and  _224
REMARK   93  A    between atoms: _224  and  _225
REMARK   94  A    between atoms: _225  and  _226
REMARK   95  A    between atoms: _229  and  _231
REMARK   96  A    between atoms: _231  and  _232
REMARK   97  A    between atoms: _231  and  _234
REMARK   98  A    between atoms: _234  and  _235
REMARK   99  A    between atoms: _235  and  _236
REMARK  100  A    between atoms: _236  and  _237
REMARK  101  A    between atoms: _237  and  _238
REMARK  102  A    between atoms: _242  and  _244
REMARK  103  A    between atoms: _244  and  _245
REMARK  104  A    between atoms: _248  and  _250
REMARK  105  A    between atoms: _250  and  _251
REMARK  106  A    between atoms: _250  and  _253
REMARK  107  A    between atoms: _253  and  _254
REMARK  108  A    between atoms: _254  and  _255
REMARK  109  A    between atoms: _258  and  _260
REMARK  110  A    between atoms: _260  and  _261
REMARK  111  A    between atoms: _260  and  _263
REMARK  112  A    between atoms: _263  and  _264
REMARK  113  A    between atoms: _266  and  _268
REMARK  114  A    between atoms: _268  and  _269
REMARK  115  A    between atoms: _268  and  _271
REMARK  116  A    between atoms: _274  and  _276
REMARK  117  A    between atoms: _276  and  _277
REMARK  118  A    between atoms: _276  and  _279
REMARK  119  A    between atoms: _279  and  _280
REMARK  120  A    between atoms: _280  and  _281
REMARK  121  A    between atoms: _284  and  _286
REMARK  122  A    between atoms: _286  and  _287
REMARK  123  A    between atoms: _286  and  _289
REMARK  124  A    between atoms: _289  and  _290
REMARK  125  A    between atoms: _295  and  _297
REMARK  126  A    between atoms: _297  and  _298
REMARK  127  A    between atoms: _297  and  _300
REMARK  128  A    between atoms: _300  and  _301
REMARK  129  A    between atoms: _306  and  _308
REMARK  130  A    between atoms: _308  and  _309
REMARK  131  A    between atoms: _308  and  _311
REMARK  132  A    between atoms: _311  and  _312
REMARK  133  A    between atoms: _318  and  _320
REMARK  134  A    between atoms: _320  and  _321
REMARK  135  A    between atoms: _320  and  _323
REMARK  136  A    between atoms: _323  and  _324
REMARK  137  A    between atoms: _329  and  _330
REMARK  138  A    between atoms: _332  and  _334
REMARK  139  A    between atoms: _334  and  _335
REMARK  140  A    between atoms: _334  and  _337
REMARK  141  A    between atoms: _337  and  _338
REMARK  142  A    between atoms: _343  and  _344
REMARK  143  A    between atoms: _346  and  _348
REMARK  144  A    between atoms: _348  and  _349
REMARK  145  A    between atoms: _348  and  _351
REMARK  146  A    between atoms: _351  and  _352
REMARK  147  A    between atoms: _355  and  _357
REMARK  148  A    between atoms: _357  and  _358
REMARK  149  A    between atoms: _357  and  _360
REMARK  150  A    between atoms: _360  and  _361
REMARK  151  A    between atoms: _364  and  _366
REMARK  152  A    between atoms: _366  and  _367
REMARK  153  A    between atoms: _366  and  _369
REMARK  154  A    between atoms: _369  and  _370
REMARK  155  A    between atoms: _370  and  _371
REMARK  156  A    between atoms: _371  and  _372
REMARK  157  A    between atoms: _372  and  _373
REMARK  158  A    between atoms: _377  and  _379
REMARK  159  A    between atoms: _379  and  _380
REMARK  160  A    between atoms: _383  and  _385
REMARK  161  A    between atoms: _385  and  _386
REMARK  162  A    between atoms: _385  and  _388
REMARK  163  A    between atoms: _388  and  _389
REMARK  164  A    between atoms: _392  and  _394
REMARK  165  A    between atoms: _394  and  _395
REMARK  166  A    between atoms: _394  and  _397
REMARK  167  A    between atoms: _397  and  _398
REMARK  168  A    between atoms: _401  and  _403
REMARK  169  A    between atoms: _403  and  _404
REMARK  170  A    between atoms: _403  and  _406
REMARK  171  A    between atoms: _409  and  _411
REMARK  172  A    between atoms: _411  and  _412
REMARK  173  A    between atoms: _411  and  _414
REMARK  174  A    between atoms: _414  and  _415
REMARK  175  A    between atoms: _420  and  _422
REMARK  176  A    between atoms: _422  and  _423
REMARK  177  A    between atoms: _422  and  _425
REMARK  178  A    between atoms: _425  and  _426
REMARK  179  A    between atoms: _431  and  _433
REMARK  180  A    between atoms: _433  and  _434
REMARK  181  A    between atoms: _437  and  _438
REMARK  182  A    between atoms: _443  and  _445
REMARK  183  A    between atoms: _445  and  _446
REMARK  184  A    between atoms: _445  and  _448
REMARK  185  A    between atoms: _448  and  _449
REMARK  186  A    between atoms: _459  and  _461
REMARK  187  A    between atoms: _461  and  _462
REMARK  188  A    between atoms: _465  and  _467
REMARK  189  A    between atoms: _467  and  _468
REMARK  190  A    between atoms: _467  and  _470
REMARK  191  A    between atoms: _470  and  _471
REMARK  192  A    between atoms: _476  and  _477
REMARK  193  A    between atoms: _479  and  _481
REMARK  194  A    between atoms: _481  and  _482
REMARK  195  A    between atoms: _481  and  _484
REMARK  196  A    between atoms: _484  and  _485
REMARK  197  A    between atoms: _491  and  _493
REMARK  198  A    between atoms: _493  and  _494
REMARK  199  A    between atoms: _493  and  _496
REMARK  200  A    between atoms: _496  and  _497
REMARK  201  A    between atoms: _500  and  _502
REMARK  202  A    between atoms: _502  and  _503
REMARK  203  A    between atoms: _505  and  _507
REMARK  204  A    between atoms: _507  and  _508
REMARK  205  A    between atoms: _507  and  _510
REMARK  206  A    between atoms: _513  and  _515
REMARK  207  A    between atoms: _515  and  _516
REMARK  208  A    between atoms: _515  and  _518
REMARK  209  A    between atoms: _518  and  _519
REMARK  210  A    between atoms: _519  and  _520
REMARK  211  A    between atoms: _520  and  _521
REMARK  212  A    between atoms: _521  and  _522
REMARK  213  A    between atoms: _526  and  _528
REMARK  214  A    between atoms: _528  and  _529
REMARK  215  A    between atoms: _528  and  _531
REMARK  216  A    between atoms: _531  and  _532
REMARK  217  A    between atoms: _532  and  _533
REMARK  218  A    between atoms: _533  and  _534
REMARK  219  A    between atoms: _543  and  _545
REMARK  220  A    between atoms: _545  and  _546
REMARK  221  A    between atoms: _545  and  _548
REMARK  222  A    between atoms: _548  and  _549
REMARK  223  A    between atoms: _549  and  _550
REMARK  224  A    between atoms: _553  and  _555
REMARK  225  A    between atoms: _555  and  _556
REMARK  226  A    between atoms: _555  and  _558
REMARK  227  A    between atoms: _558  and  _559
REMARK  228  A    between atoms: _559  and  _560
REMARK  229  A    between atoms: _563  and  _564
REMARK  230  A    between atoms: _569  and  _571
REMARK  231  A    between atoms: _571  and  _572
REMARK  232  A    between atoms: _571  and  _574
REMARK  233  A    between atoms: _574  and  _575
REMARK  234  A    between atoms: _575  and  _576
REMARK  235  A    between atoms: _578  and  _580
REMARK  236  A    between atoms: _580  and  _581
REMARK  237  A    between atoms: _583  and  _585
REMARK  238  A    between atoms: _585  and  _586
REMARK  239  A    between atoms: _585  and  _588
REMARK  240  A    between atoms: _591  and  _593
REMARK  241  A    between atoms: _593  and  _594
REMARK  242  A    between atoms: _593  and  _596
REMARK  243  A    between atoms: _596  and  _597
REMARK  244  A    between atoms: _607  and  _609
REMARK  245  A    between atoms: _609  and  _610
REMARK  246  A    between atoms: _609  and  _612
REMARK  247  A    between atoms: _612  and  _613
REMARK  248  A    between atoms: _613  and  _614
REMARK  249  A    between atoms: _618  and  _619
REMARK  250  A    between atoms: _624  and  _626
REMARK  251  A    between atoms: _626  and  _627
REMARK  252  A    between atoms: _626  and  _629
REMARK  253  A    between atoms: _629  and  _630
REMARK  254  A    between atoms: _633  and  _635
REMARK  255  A    between atoms: _635  and  _636
REMARK  256  A    between atoms: _635  and  _638
REMARK  257  A    between atoms: _638  and  _639
REMARK  258  A    between atoms: _644  and  _646
REMARK  259  A    between atoms: _646  and  _647
REMARK  260  A    between atoms: _646  and  _649
REMARK  261  A    between atoms: _649  and  _650
REMARK                            x       y       z     vdW  Elec       q    Type
REMARK                         _______ _______ _______ _____ _____    ______ ____
ROOT
ATOM      1  O   HOH     1      12.680  -3.884  16.104  0.00  0.00    +0.000 OA
ENDROOT
TORSDOF 0
REMARK  Name = ../refined-set-2016/2zym/2zym_pocket.pdb
REMARK  261 active torsions:
REMARK  status: ('A' for Active; 'I' for Inactive)
REMARK    1  A    between atoms: _1  and  _3
REMARK    2  A    between atoms: _3  and  _4
REMARK    3  A    between atoms: _3  and  _6
REMARK    4  A    between atoms: _6  and  _7
REMARK    5  A    between atoms: _7  and  _8
REMARK    6  A    between atoms: _11  and  _13
REMARK    7  A    between atoms: _13  and  _14
REMARK    8  A    between atoms: _13  and  _16
REMARK    9  A    between atoms: _16  and  _17
REMARK   10  A    between atoms: _22  and  _24
REMARK   11  A    between atoms: _24  and  _25
REMARK   12  A    between atoms: _28  and  _30
REMARK   13  A    between atoms: _30  and  _31
REMARK   14  A    between atoms: _30  and  _33
REMARK   15  A    between atoms: _33  and  _34
REMARK   16  A    between atoms: _37  and  _39
REMARK   17  A    between atoms: _39  and  _40
REMARK   18  A    between atoms: _39  and  _42
REMARK   19  A    between atoms: _42  and  _43
REMARK   20  A    between atoms: _43  and  _44
REMARK   21  A    between atoms: _49  and  _51
REMARK   22  A    between atoms: _51  and  _52
REMARK   23  A    between atoms: _51  and  _54
REMARK   24  A    between atoms: _57  and  _59
REMARK   25  A    between atoms: _59  and  _60
REMARK   26  A    between atoms: _63  and  _65
REMARK   27  A    between atoms: _65  and  _66
REMARK   28  A    between atoms: _65  and  _68
REMARK   29  A    between atoms: _68  and  _69
REMARK   30  A    between atoms: _72  and  _74
REMARK   31  A    between atoms: _74  and  _75
REMARK   32  A    between atoms: _74  and  _77
REMARK   33  A    between atoms: _77  and  _78
REMARK   34  A    between atoms: _81  and  _83
REMARK   35  A    between atoms: _83  and  _84
REMARK   36  A    between atoms: _83  and  _86
REMARK   37  A    between atoms: _86  and  _87
REMARK   38  A    between atoms: _87  and  _88
REMARK   39  A    between atoms: _88  and  _89
REMARK   40  A    between atoms: _89  and  _90
REMARK   41  A    between atoms: _94  and  _96
REMARK   42  A    between atoms: _96  and  _97
REMARK   43  A    between atoms: _96  and  _99
REMARK   44  A    between atoms: _99  and  _100
REMARK   45  A    between atoms: _100  and  _101
REMARK   46  A    between atoms: _106  and  _108
REMARK   47  A    between atoms: _108  and  _109
REMARK   48  A    between atoms: _108  and  _111
REMARK   49  A    between atoms: _111  and  _112
REMARK   50  A    between atoms: _112  and  _113
REMARK   51  A    between atoms: _118  and  _120
REMARK   52  A    between atoms: _120  and  _121
REMARK   53  A    between atoms: _120  and  _123
REMARK   54  A    between atoms: _123  and  _124
REMARK   55  A    between atoms: _124  and  _125
REMARK   56  A    between atoms: _128  and  _130
REMARK   57  A    between atoms: _130  and  _131
REMARK   58  A    between atoms: _130  and  _133
REMARK   59  A    between atoms: _133  and  _134
REMARK   60  A    between atoms: _134  and  _135
REMARK   61  A    between atoms: _135  and  _136
REMARK   62  A    between atoms: _136  and  _137
REMARK   63  A    between atoms: _141  and  _143
REMARK   64  A    between atoms: _143  and  _144
REMARK   65  A    between atoms: _143  and  _146
REMARK   66  A    between atoms: _146  and  _147
REMARK   67  A    between atoms: _150  and  _152
REMARK   68  A    between atoms: _152  and  _153
REMARK   69  A    between atoms: _152  and  _155
REMARK   70  A    between atoms: _155  and  _156
REMARK   71  A    between atoms: _167  and  _168
REMARK   72  A    between atoms: _173  and  _175
REMARK   73  A    between atoms: _175  and  _176
REMARK   74  A    between atoms: _175  and  _178
REMARK   75  A    between atoms: _178  and  _179
REMARK   76  A    between atoms: _184  and  _186
REMARK   77  A    between atoms: _186  and  _187
REMARK   78  A    between atoms: _186  and  _189
REMARK   79  A    between atoms: _189  and  _190
REMARK   80  A    between atoms: _193  and  _195
REMARK   81  A    between atoms: _195  and  _196
REMARK   82  A    between atoms: _195  and  _198
REMARK   83  A    between atoms: _198  and  _199
REMARK   84  A    between atoms: _199  and  _200
REMARK   85  A    between atoms: _200  and  _201
REMARK   86  A    between atoms: _210  and  _212
REMARK   87  A    between atoms: _212  and  _213
REMARK   88  A    between atoms: _212  and  _215
REMARK   89  A    between atoms: _215  and  _216
REMARK   90  A    between atoms: _219  and  _221
REMARK   91  A    between atoms: _221  and  _222
REMARK   92  A    between atoms: _221  and  _224
REMARK   93  A    between atoms: _224  and  _225
REMARK   94  A    between atoms: _225  and  _226
REMARK   95  A    between atoms: _229  and  _231
REMARK   96  A    between atoms: _231  and  _232
REMARK   97  A    between atoms: _231  and  _234
REMARK   98  A    between atoms: _234  and  _235
REMARK   99  A    between atoms: _235  and  _236
REMARK  100  A    between atoms: _236  and  _237
REMARK  101  A    between atoms: _237  and  _238
REMARK  102  A    between atoms: _242  and  _244
REMARK  103  A    between atoms: _244  and  _245
REMARK  104  A    between atoms: _248  and  _250
REMARK  105  A    between atoms: _250  and  _251
REMARK  106  A    between atoms: _250  and  _253
REMARK  107  A    between atoms: _253  and  _254
REMARK  108  A    between atoms: _254  and  _255
REMARK  109  A    between atoms: _258  and  _260
REMARK  110  A    between atoms: _260  and  _261
REMARK  111  A    between atoms: _260  and  _263
REMARK  112  A    between atoms: _263  and  _264
REMARK  113  A    between atoms: _266  and  _268
REMARK  114  A    between atoms: _268  and  _269
REMARK  115  A    between atoms: _268  and  _271
REMARK  116  A    between atoms: _274  and  _276
REMARK  117  A    between atoms: _276  and  _277
REMARK  118  A    between atoms: _276  and  _279
REMARK  119  A    between atoms: _279  and  _280
REMARK  120  A    between atoms: _280  and  _281
REMARK  121  A    between atoms: _284  and  _286
REMARK  122  A    between atoms: _286  and  _287
REMARK  123  A    between atoms: _286  and  _289
REMARK  124  A    between atoms: _289  and  _290
REMARK  125  A    between atoms: _295  and  _297
REMARK  126  A    between atoms: _297  and  _298
REMARK  127  A    between atoms: _297  and  _300
REMARK  128  A    between atoms: _300  and  _301
REMARK  129  A    between atoms: _306  and  _308
REMARK  130  A    between atoms: _308  and  _309
REMARK  131  A    between atoms: _308  and  _311
REMARK  132  A    between atoms: _311  and  _312
REMARK  133  A    between atoms: _318  and  _320
REMARK  134  A    between atoms: _320  and  _321
REMARK  135  A    between atoms: _320  and  _323
REMARK  136  A    between atoms: _323  and  _324
REMARK  137  A    between atoms: _329  and  _330
REMARK  138  A    between atoms: _332  and  _334
REMARK  139  A    between atoms: _334  and  _335
REMARK  140  A    between atoms: _334  and  _337
REMARK  141  A    between atoms: _337  and  _338
REMARK  142  A    between atoms: _343  and  _344
REMARK  143  A    between atoms: _346  and  _348
REMARK  144  A    between atoms: _348  and  _349
REMARK  145  A    between atoms: _348  and  _351
REMARK  146  A    between atoms: _351  and  _352
REMARK  147  A    between atoms: _355  and  _357
REMARK  148  A    between atoms: _357  and  _358
REMARK  149  A    between atoms: _357  and  _360
REMARK  150  A    between atoms: _360  and  _361
REMARK  151  A    between atoms: _364  and  _366
REMARK  152  A    between atoms: _366  and  _367
REMARK  153  A    between atoms: _366  and  _369
REMARK  154  A    between atoms: _369  and  _370
REMARK  155  A    between atoms: _370  and  _371
REMARK  156  A    between atoms: _371  and  _372
REMARK  157  A    between atoms: _372  and  _373
REMARK  158  A    between atoms: _377  and  _379
REMARK  159  A    between atoms: _379  and  _380
REMARK  160  A    between atoms: _383  and  _385
REMARK  161  A    between atoms: _385  and  _386
REMARK  162  A    between atoms: _385  and  _388
REMARK  163  A    between atoms: _388  and  _389
REMARK  164  A    between atoms: _392  and  _394
REMARK  165  A    between atoms: _394  and  _395
REMARK  166  A    between atoms: _394  and  _397
REMARK  167  A    between atoms: _397  and  _398
REMARK  168  A    between atoms: _401  and  _403
REMARK  169  A    between atoms: _403  and  _404
REMARK  170  A    between atoms: _403  and  _406
REMARK  171  A    between atoms: _409  and  _411
REMARK  172  A    between atoms: _411  and  _412
REMARK  173  A    between atoms: _411  and  _414
REMARK  174  A    between atoms: _414  and  _415
REMARK  175  A    between atoms: _420  and  _422
REMARK  176  A    between atoms: _422  and  _423
REMARK  177  A    between atoms: _422  and  _425
REMARK  178  A    between atoms: _425  and  _426
REMARK  179  A    between atoms: _431  and  _433
REMARK  180  A    between atoms: _433  and  _434
REMARK  181  A    between atoms: _437  and  _438
REMARK  182  A    between atoms: _443  and  _445
REMARK  183  A    between atoms: _445  and  _446
REMARK  184  A    between atoms: _445  and  _448
REMARK  185  A    between atoms: _448  and  _449
REMARK  186  A    between atoms: _459  and  _461
REMARK  187  A    between atoms: _461  and  _462
REMARK  188  A    between atoms: _465  and  _467
REMARK  189  A    between atoms: _467  and  _468
REMARK  190  A    between atoms: _467  and  _470
REMARK  191  A    between atoms: _470  and  _471
REMARK  192  A    between atoms: _476  and  _477
REMARK  193  A    between atoms: _479  and  _481
REMARK  194  A    between atoms: _481  and  _482
REMARK  195  A    between atoms: _481  and  _484
REMARK  196  A    between atoms: _484  and  _485
REMARK  197  A    between atoms: _491  and  _493
REMARK  198  A    between atoms: _493  and  _494
REMARK  199  A    between atoms: _493  and  _496
REMARK  200  A    between atoms: _496  and  _497
REMARK  201  A    between atoms: _500  and  _502
REMARK  202  A    between atoms: _502  and  _503
REMARK  203  A    between atoms: _505  and  _507
REMARK  204  A    between atoms: _507  and  _508
REMARK  205  A    between atoms: _507  and  _510
REMARK  206  A    between atoms: _513  and  _515
REMARK  207  A    between atoms: _515  and  _516
REMARK  208  A    between atoms: _515  and  _518
REMARK  209  A    between atoms: _518  and  _519
REMARK  210  A    between atoms: _519  and  _520
REMARK  211  A    between atoms: _520  and  _521
REMARK  212  A    between atoms: _521  and  _522
REMARK  213  A    between atoms: _526  and  _528
REMARK  214  A    between atoms: _528  and  _529
REMARK  215  A    between atoms: _528  and  _531
REMARK  216  A    between atoms: _531  and  _532
REMARK  217  A    between atoms: _532  and  _533
REMARK  218  A    between atoms: _533  and  _534
REMARK  219  A    between atoms: _543  and  _545
REMARK  220  A    between atoms: _545  and  _546
REMARK  221  A    between atoms: _545  and  _548
REMARK  222  A    between atoms: _548  and  _549
REMARK  223  A    between atoms: _549  and  _550
REMARK  224  A    between atoms: _553  and  _555
REMARK  225  A    between atoms: _555  and  _556
REMARK  226  A    between atoms: _555  and  _558
REMARK  227  A    between atoms: _558  and  _559
REMARK  228  A    between atoms: _559  and  _560
REMARK  229  A    between atoms: _563  and  _564
REMARK  230  A    between atoms: _569  and  _571
REMARK  231  A    between atoms: _571  and  _572
REMARK  232  A    between atoms: _571  and  _574
REMARK  233  A    between atoms: _574  and  _575
REMARK  234  A    between atoms: _575  and  _576
REMARK  235  A    between atoms: _578  and  _580
REMARK  236  A    between atoms: _580  and  _581
REMARK  237  A    between atoms: _583  and  _585
REMARK  238  A    between atoms: _585  and  _586
REMARK  239  A    between atoms: _585  and  _588
REMARK  240  A    between atoms: _591  and  _593
REMARK  241  A    between atoms: _593  and  _594
REMARK  242  A    between atoms: _593  and  _596
REMARK  243  A    between atoms: _596  and  _597
REMARK  244  A    between atoms: _607  and  _609
REMARK  245  A    between atoms: _609  and  _610
REMARK  246  A    between atoms: _609  and  _612
REMARK  247  A    between atoms: _612  and  _613
REMARK  248  A    between atoms: _613  and  _614
REMARK  249  A    between atoms: _618  and  _619
REMARK  250  A    between atoms: _624  and  _626
REMARK  251  A    between atoms: _626  and  _627
REMARK  252  A    between atoms: _626  and  _629
REMARK  253  A    between atoms: _629  and  _630
REMARK  254  A    between atoms: _633  and  _635
REMARK  255  A    between atoms: _635  and  _636
REMARK  256  A    between atoms: _635  and  _638
REMARK  257  A    between atoms: _638  and  _639
REMARK  258  A    between atoms: _644  and  _646
REMARK  259  A    between atoms: _646  and  _647
REMARK  260  A    between atoms: _646  and  _649
REMARK  261  A    between atoms: _649  and  _650
REMARK                            x       y       z     vdW  Elec       q    Type
REMARK                         _______ _______ _______ _____ _____    ______ ____
ROOT
ATOM      1  O   HOH     1      25.009  14.000  20.425  0.00  0.00    +0.000 OA
ENDROOT
TORSDOF 0
REMARK  Name = ../refined-set-2016/2zym/2zym_pocket.pdb
REMARK  261 active torsions:
REMARK  status: ('A' for Active; 'I' for Inactive)
REMARK    1  A    between atoms: _1  and  _3
REMARK    2  A    between atoms: _3  and  _4
REMARK    3  A    between atoms: _3  and  _6
REMARK    4  A    between atoms: _6  and  _7
REMARK    5  A    between atoms: _7  and  _8
REMARK    6  A    between atoms: _11  and  _13
REMARK    7  A    between atoms: _13  and  _14
REMARK    8  A    between atoms: _13  and  _16
REMARK    9  A    between atoms: _16  and  _17
REMARK   10  A    between atoms: _22  and  _24
REMARK   11  A    between atoms: _24  and  _25
REMARK   12  A    between atoms: _28  and  _30
REMARK   13  A    between atoms: _30  and  _31
REMARK   14  A    between atoms: _30  and  _33
REMARK   15  A    between atoms: _33  and  _34
REMARK   16  A    between atoms: _37  and  _39
REMARK   17  A    between atoms: _39  and  _40
REMARK   18  A    between atoms: _39  and  _42
REMARK   19  A    between atoms: _42  and  _43
REMARK   20  A    between atoms: _43  and  _44
REMARK   21  A    between atoms: _49  and  _51
REMARK   22  A    between atoms: _51  and  _52
REMARK   23  A    between atoms: _51  and  _54
REMARK   24  A    between atoms: _57  and  _59
REMARK   25  A    between atoms: _59  and  _60
REMARK   26  A    between atoms: _63  and  _65
REMARK   27  A    between atoms: _65  and  _66
REMARK   28  A    between atoms: _65  and  _68
REMARK   29  A    between atoms: _68  and  _69
REMARK   30  A    between atoms: _72  and  _74
REMARK   31  A    between atoms: _74  and  _75
REMARK   32  A    between atoms: _74  and  _77
REMARK   33  A    between atoms: _77  and  _78
REMARK   34  A    between atoms: _81  and  _83
REMARK   35  A    between atoms: _83  and  _84
REMARK   36  A    between atoms: _83  and  _86
REMARK   37  A    between atoms: _86  and  _87
REMARK   38  A    between atoms: _87  and  _88
REMARK   39  A    between atoms: _88  and  _89
REMARK   40  A    between atoms: _89  and  _90
REMARK   41  A    between atoms: _94  and  _96
REMARK   42  A    between atoms: _96  and  _97
REMARK   43  A    between atoms: _96  and  _99
REMARK   44  A    between atoms: _99  and  _100
REMARK   45  A    between atoms: _100  and  _101
REMARK   46  A    between atoms: _106  and  _108
REMARK   47  A    between atoms: _108  and  _109
REMARK   48  A    between atoms: _108  and  _111
REMARK   49  A    between atoms: _111  and  _112
REMARK   50  A    between atoms: _112  and  _113
REMARK   51  A    between atoms: _118  and  _120
REMARK   52  A    between atoms: _120  and  _121
REMARK   53  A    between atoms: _120  and  _123
REMARK   54  A    between atoms: _123  and  _124
REMARK   55  A    between atoms: _124  and  _125
REMARK   56  A    between atoms: _128  and  _130
REMARK   57  A    between atoms: _130  and  _131
REMARK   58  A    between atoms: _130  and  _133
REMARK   59  A    between atoms: _133  and  _134
REMARK   60  A    between atoms: _134  and  _135
REMARK   61  A    between atoms: _135  and  _136
REMARK   62  A    between atoms: _136  and  _137
REMARK   63  A    between atoms: _141  and  _143
REMARK   64  A    between atoms: _143  and  _144
REMARK   65  A    between atoms: _143  and  _146
REMARK   66  A    between atoms: _146  and  _147
REMARK   67  A    between atoms: _150  and  _152
REMARK   68  A    between atoms: _152  and  _153
REMARK   69  A    between atoms: _152  and  _155
REMARK   70  A    between atoms: _155  and  _156
REMARK   71  A    between atoms: _167  and  _168
REMARK   72  A    between atoms: _173  and  _175
REMARK   73  A    between atoms: _175  and  _176
REMARK   74  A    between atoms: _175  and  _178
REMARK   75  A    between atoms: _178  and  _179
REMARK   76  A    between atoms: _184  and  _186
REMARK   77  A    between atoms: _186  and  _187
REMARK   78  A    between atoms: _186  and  _189
REMARK   79  A    between atoms: _189  and  _190
REMARK   80  A    between atoms: _193  and  _195
REMARK   81  A    between atoms: _195  and  _196
REMARK   82  A    between atoms: _195  and  _198
REMARK   83  A    between atoms: _198  and  _199
REMARK   84  A    between atoms: _199  and  _200
REMARK   85  A    between atoms: _200  and  _201
REMARK   86  A    between atoms: _210  and  _212
REMARK   87  A    between atoms: _212  and  _213
REMARK   88  A    between atoms: _212  and  _215
REMARK   89  A    between atoms: _215  and  _216
REMARK   90  A    between atoms: _219  and  _221
REMARK   91  A    between atoms: _221  and  _222
REMARK   92  A    between atoms: _221  and  _224
REMARK   93  A    between atoms: _224  and  _225
REMARK   94  A    between atoms: _225  and  _226
REMARK   95  A    between atoms: _229  and  _231
REMARK   96  A    between atoms: _231  and  _232
REMARK   97  A    between atoms: _231  and  _234
REMARK   98  A    between atoms: _234  and  _235
REMARK   99  A    between atoms: _235  and  _236
REMARK  100  A    between atoms: _236  and  _237
REMARK  101  A    between atoms: _237  and  _238
REMARK  102  A    between atoms: _242  and  _244
REMARK  103  A    between atoms: _244  and  _245
REMARK  104  A    between atoms: _248  and  _250
REMARK  105  A    between atoms: _250  and  _251
REMARK  106  A    between atoms: _250  and  _253
REMARK  107  A    between atoms: _253  and  _254
REMARK  108  A    between atoms: _254  and  _255
REMARK  109  A    between atoms: _258  and  _260
REMARK  110  A    between atoms: _260  and  _261
REMARK  111  A    between atoms: _260  and  _263
REMARK  112  A    between atoms: _263  and  _264
REMARK  113  A    between atoms: _266  and  _268
REMARK  114  A    between atoms: _268  and  _269
REMARK  115  A    between atoms: _268  and  _271
REMARK  116  A    between atoms: _274  and  _276
REMARK  117  A    between atoms: _276  and  _277
REMARK  118  A    between atoms: _276  and  _279
REMARK  119  A    between atoms: _279  and  _280
REMARK  120  A    between atoms: _280  and  _281
REMARK  121  A    between atoms: _284  and  _286
REMARK  122  A    between atoms: _286  and  _287
REMARK  123  A    between atoms: _286  and  _289
REMARK  124  A    between atoms: _289  and  _290
REMARK  125  A    between atoms: _295  and  _297
REMARK  126  A    between atoms: _297  and  _298
REMARK  127  A    between atoms: _297  and  _300
REMARK  128  A    between atoms: _300  and  _301
REMARK  129  A    between atoms: _306  and  _308
REMARK  130  A    between atoms: _308  and  _309
REMARK  131  A    between atoms: _308  and  _311
REMARK  132  A    between atoms: _311  and  _312
REMARK  133  A    between atoms: _318  and  _320
REMARK  134  A    between atoms: _320  and  _321
REMARK  135  A    between atoms: _320  and  _323
REMARK  136  A    between atoms: _323  and  _324
REMARK  137  A    between atoms: _329  and  _330
REMARK  138  A    between atoms: _332  and  _334
REMARK  139  A    between atoms: _334  and  _335
REMARK  140  A    between atoms: _334  and  _337
REMARK  141  A    between atoms: _337  and  _338
REMARK  142  A    between atoms: _343  and  _344
REMARK  143  A    between atoms: _346  and  _348
REMARK  144  A    between atoms: _348  and  _349
REMARK  145  A    between atoms: _348  and  _351
REMARK  146  A    between atoms: _351  and  _352
REMARK  147  A    between atoms: _355  and  _357
REMARK  148  A    between atoms: _357  and  _358
REMARK  149  A    between atoms: _357  and  _360
REMARK  150  A    between atoms: _360  and  _361
REMARK  151  A    between atoms: _364  and  _366
REMARK  152  A    between atoms: _366  and  _367
REMARK  153  A    between atoms: _366  and  _369
REMARK  154  A    between atoms: _369  and  _370
REMARK  155  A    between atoms: _370  and  _371
REMARK  156  A    between atoms: _371  and  _372
REMARK  157  A    between atoms: _372  and  _373
REMARK  158  A    between atoms: _377  and  _379
REMARK  159  A    between atoms: _379  and  _380
REMARK  160  A    between atoms: _383  and  _385
REMARK  161  A    between atoms: _385  and  _386
REMARK  162  A    between atoms: _385  and  _388
REMARK  163  A    between atoms: _388  and  _389
REMARK  164  A    between atoms: _392  and  _394
REMARK  165  A    between atoms: _394  and  _395
REMARK  166  A    between atoms: _394  and  _397
REMARK  167  A    between atoms: _397  and  _398
REMARK  168  A    between atoms: _401  and  _403
REMARK  169  A    between atoms: _403  and  _404
REMARK  170  A    between atoms: _403  and  _406
REMARK  171  A    between atoms: _409  and  _411
REMARK  172  A    between atoms: _411  and  _412
REMARK  173  A    between atoms: _411  and  _414
REMARK  174  A    between atoms: _414  and  _415
REMARK  175  A    between atoms: _420  and  _422
REMARK  176  A    between atoms: _422  and  _423
REMARK  177  A    between atoms: _422  and  _425
REMARK  178  A    between atoms: _425  and  _426
REMARK  179  A    between atoms: _431  and  _433
REMARK  180  A    between atoms: _433  and  _434
REMARK  181  A    between atoms: _437  and  _438
REMARK  182  A    between atoms: _443  and  _445
REMARK  183  A    between atoms: _445  and  _446
REMARK  184  A    between atoms: _445  and  _448
REMARK  185  A    between atoms: _448  and  _449
REMARK  186  A    between atoms: _459  and  _461
REMARK  187  A    between atoms: _461  and  _462
REMARK  188  A    between atoms: _465  and  _467
REMARK  189  A    between atoms: _467  and  _468
REMARK  190  A    between atoms: _467  and  _470
REMARK  191  A    between atoms: _470  and  _471
REMARK  192  A    between atoms: _476  and  _477
REMARK  193  A    between atoms: _479  and  _481
REMARK  194  A    between atoms: _481  and  _482
REMARK  195  A    between atoms: _481  and  _484
REMARK  196  A    between atoms: _484  and  _485
REMARK  197  A    between atoms: _491  and  _493
REMARK  198  A    between atoms: _493  and  _494
REMARK  199  A    between atoms: _493  and  _496
REMARK  200  A    between atoms: _496  and  _497
REMARK  201  A    between atoms: _500  and  _502
REMARK  202  A    between atoms: _502  and  _503
REMARK  203  A    between atoms: _505  and  _507
REMARK  204  A    between atoms: _507  and  _508
REMARK  205  A    between atoms: _507  and  _510
REMARK  206  A    between atoms: _513  and  _515
REMARK  207  A    between atoms: _515  and  _516
REMARK  208  A    between atoms: _515  and  _518
REMARK  209  A    between atoms: _518  and  _519
REMARK  210  A    between atoms: _519  and  _520
REMARK  211  A    between atoms: _520  and  _521
REMARK  212  A    between atoms: _521  and  _522
REMARK  213  A    between atoms: _526  and  _528
REMARK  214  A    between atoms: _528  and  _529
REMARK  215  A    between atoms: _528  and  _531
REMARK  216  A    between atoms: _531  and  _532
REMARK  217  A    between atoms: _532  and  _533
REMARK  218  A    between atoms: _533  and  _534
REMARK  219  A    between atoms: _543  and  _545
REMARK  220  A    between atoms: _545  and  _546
REMARK  221  A    between atoms: _545  and  _548
REMARK  222  A    between atoms: _548  and  _549
REMARK  223  A    between atoms: _549  and  _550
REMARK  224  A    between atoms: _553  and  _555
REMARK  225  A    between atoms: _555  and  _556
REMARK  226  A    between atoms: _555  and  _558
REMARK  227  A    between atoms: _558  and  _559
REMARK  228  A    between atoms: _559  and  _560
REMARK  229  A    between atoms: _563  and  _564
REMARK  230  A    between atoms: _569  and  _571
REMARK  231  A    between atoms: _571  and  _572
REMARK  232  A    between atoms: _571  and  _574
REMARK  233  A    between atoms: _574  and  _575
REMARK  234  A    between atoms: _575  and  _576
REMARK  235  A    between atoms: _578  and  _580
REMARK  236  A    between atoms: _580  and  _581
REMARK  237  A    between atoms: _583  and  _585
REMARK  238  A    between atoms: _585  and  _586
REMARK  239  A    between atoms: _585  and  _588
REMARK  240  A    between atoms: _591  and  _593
REMARK  241  A    between atoms: _593  and  _594
REMARK  242  A    between atoms: _593  and  _596
REMARK  243  A    between atoms: _596  and  _597
REMARK  244  A    between atoms: _607  and  _609
REMARK  245  A    between atoms: _609  and  _610
REMARK  246  A    between atoms: _609  and  _612
REMARK  247  A    between atoms: _612  and  _613
REMARK  248  A    between atoms: _613  and  _614
REMARK  249  A    between atoms: _618  and  _619
REMARK  250  A    between atoms: _624  and  _626
REMARK  251  A    between atoms: _626  and  _627
REMARK  252  A    between atoms: _626  and  _629
REMARK  253  A    between atoms: _629  and  _630
REMARK  254  A    between atoms: _633  and  _635
REMARK  255  A    between atoms: _635  and  _636
REMARK  256  A    between atoms: _635  and  _638
REMARK  257  A    between atoms: _638  and  _639
REMARK  258  A    between atoms: _644  and  _646
REMARK  259  A    between atoms: _646  and  _647
REMARK  260  A    between atoms: _646  and  _649
REMARK  261  A    between atoms: _649  and  _650
REMARK                            x       y       z     vdW  Elec       q    Type
REMARK                         _______ _______ _______ _____ _____    ______ ____
ROOT
ATOM      1  O   HOH     1      14.146   3.768  10.707  0.00  0.00    +0.000 OA
ENDROOT
TORSDOF 0
REMARK  Name = ../refined-set-2016/2zym/2zym_pocket.pdb
REMARK  261 active torsions:
REMARK  status: ('A' for Active; 'I' for Inactive)
REMARK    1  A    between atoms: _1  and  _3
REMARK    2  A    between atoms: _3  and  _4
REMARK    3  A    between atoms: _3  and  _6
REMARK    4  A    between atoms: _6  and  _7
REMARK    5  A    between atoms: _7  and  _8
REMARK    6  A    between atoms: _11  and  _13
REMARK    7  A    between atoms: _13  and  _14
REMARK    8  A    between atoms: _13  and  _16
REMARK    9  A    between atoms: _16  and  _17
REMARK   10  A    between atoms: _22  and  _24
REMARK   11  A    between atoms: _24  and  _25
REMARK   12  A    between atoms: _28  and  _30
REMARK   13  A    between atoms: _30  and  _31
REMARK   14  A    between atoms: _30  and  _33
REMARK   15  A    between atoms: _33  and  _34
REMARK   16  A    between atoms: _37  and  _39
REMARK   17  A    between atoms: _39  and  _40
REMARK   18  A    between atoms: _39  and  _42
REMARK   19  A    between atoms: _42  and  _43
REMARK   20  A    between atoms: _43  and  _44
REMARK   21  A    between atoms: _49  and  _51
REMARK   22  A    between atoms: _51  and  _52
REMARK   23  A    between atoms: _51  and  _54
REMARK   24  A    between atoms: _57  and  _59
REMARK   25  A    between atoms: _59  and  _60
REMARK   26  A    between atoms: _63  and  _65
REMARK   27  A    between atoms: _65  and  _66
REMARK   28  A    between atoms: _65  and  _68
REMARK   29  A    between atoms: _68  and  _69
REMARK   30  A    between atoms: _72  and  _74
REMARK   31  A    between atoms: _74  and  _75
REMARK   32  A    between atoms: _74  and  _77
REMARK   33  A    between atoms: _77  and  _78
REMARK   34  A    between atoms: _81  and  _83
REMARK   35  A    between atoms: _83  and  _84
REMARK   36  A    between atoms: _83  and  _86
REMARK   37  A    between atoms: _86  and  _87
REMARK   38  A    between atoms: _87  and  _88
REMARK   39  A    between atoms: _88  and  _89
REMARK   40  A    between atoms: _89  and  _90
REMARK   41  A    between atoms: _94  and  _96
REMARK   42  A    between atoms: _96  and  _97
REMARK   43  A    between atoms: _96  and  _99
REMARK   44  A    between atoms: _99  and  _100
REMARK   45  A    between atoms: _100  and  _101
REMARK   46  A    between atoms: _106  and  _108
REMARK   47  A    between atoms: _108  and  _109
REMARK   48  A    between atoms: _108  and  _111
REMARK   49  A    between atoms: _111  and  _112
REMARK   50  A    between atoms: _112  and  _113
REMARK   51  A    between atoms: _118  and  _120
REMARK   52  A    between atoms: _120  and  _121
REMARK   53  A    between atoms: _120  and  _123
REMARK   54  A    between atoms: _123  and  _124
REMARK   55  A    between atoms: _124  and  _125
REMARK   56  A    between atoms: _128  and  _130
REMARK   57  A    between atoms: _130  and  _131
REMARK   58  A    between atoms: _130  and  _133
REMARK   59  A    between atoms: _133  and  _134
REMARK   60  A    between atoms: _134  and  _135
REMARK   61  A    between atoms: _135  and  _136
REMARK   62  A    between atoms: _136  and  _137
REMARK   63  A    between atoms: _141  and  _143
REMARK   64  A    between atoms: _143  and  _144
REMARK   65  A    between atoms: _143  and  _146
REMARK   66  A    between atoms: _146  and  _147
REMARK   67  A    between atoms: _150  and  _152
REMARK   68  A    between atoms: _152  and  _153
REMARK   69  A    between atoms: _152  and  _155
REMARK   70  A    between atoms: _155  and  _156
REMARK   71  A    between atoms: _167  and  _168
REMARK   72  A    between atoms: _173  and  _175
REMARK   73  A    between atoms: _175  and  _176
REMARK   74  A    between atoms: _175  and  _178
REMARK   75  A    between atoms: _178  and  _179
REMARK   76  A    between atoms: _184  and  _186
REMARK   77  A    between atoms: _186  and  _187
REMARK   78  A    between atoms: _186  and  _189
REMARK   79  A    between atoms: _189  and  _190
REMARK   80  A    between atoms: _193  and  _195
REMARK   81  A    between atoms: _195  and  _196
REMARK   82  A    between atoms: _195  and  _198
REMARK   83  A    between atoms: _198  and  _199
REMARK   84  A    between atoms: _199  and  _200
REMARK   85  A    between atoms: _200  and  _201
REMARK   86  A    between atoms: _210  and  _212
REMARK   87  A    between atoms: _212  and  _213
REMARK   88  A    between atoms: _212  and  _215
REMARK   89  A    between atoms: _215  and  _216
REMARK   90  A    between atoms: _219  and  _221
REMARK   91  A    between atoms: _221  and  _222
REMARK   92  A    between atoms: _221  and  _224
REMARK   93  A    between atoms: _224  and  _225
REMARK   94  A    between atoms: _225  and  _226
REMARK   95  A    between atoms: _229  and  _231
REMARK   96  A    between atoms: _231  and  _232
REMARK   97  A    between atoms: _231  and  _234
REMARK   98  A    between atoms: _234  and  _235
REMARK   99  A    between atoms: _235  and  _236
REMARK  100  A    between atoms: _236  and  _237
REMARK  101  A    between atoms: _237  and  _238
REMARK  102  A    between atoms: _242  and  _244
REMARK  103  A    between atoms: _244  and  _245
REMARK  104  A    between atoms: _248  and  _250
REMARK  105  A    between atoms: _250  and  _251
REMARK  106  A    between atoms: _250  and  _253
REMARK  107  A    between atoms: _253  and  _254
REMARK  108  A    between atoms: _254  and  _255
REMARK  109  A    between atoms: _258  and  _260
REMARK  110  A    between atoms: _260  and  _261
REMARK  111  A    between atoms: _260  and  _263
REMARK  112  A    between atoms: _263  and  _264
REMARK  113  A    between atoms: _266  and  _268
REMARK  114  A    between atoms: _268  and  _269
REMARK  115  A    between atoms: _268  and  _271
REMARK  116  A    between atoms: _274  and  _276
REMARK  117  A    between atoms: _276  and  _277
REMARK  118  A    between atoms: _276  and  _279
REMARK  119  A    between atoms: _279  and  _280
REMARK  120  A    between atoms: _280  and  _281
REMARK  121  A    between atoms: _284  and  _286
REMARK  122  A    between atoms: _286  and  _287
REMARK  123  A    between atoms: _286  and  _289
REMARK  124  A    between atoms: _289  and  _290
REMARK  125  A    between atoms: _295  and  _297
REMARK  126  A    between atoms: _297  and  _298
REMARK  127  A    between atoms: _297  and  _300
REMARK  128  A    between atoms: _300  and  _301
REMARK  129  A    between atoms: _306  and  _308
REMARK  130  A    between atoms: _308  and  _309
REMARK  131  A    between atoms: _308  and  _311
REMARK  132  A    between atoms: _311  and  _312
REMARK  133  A    between atoms: _318  and  _320
REMARK  134  A    between atoms: _320  and  _321
REMARK  135  A    between atoms: _320  and  _323
REMARK  136  A    between atoms: _323  and  _324
REMARK  137  A    between atoms: _329  and  _330
REMARK  138  A    between atoms: _332  and  _334
REMARK  139  A    between atoms: _334  and  _335
REMARK  140  A    between atoms: _334  and  _337
REMARK  141  A    between atoms: _337  and  _338
REMARK  142  A    between atoms: _343  and  _344
REMARK  143  A    between atoms: _346  and  _348
REMARK  144  A    between atoms: _348  and  _349
REMARK  145  A    between atoms: _348  and  _351
REMARK  146  A    between atoms: _351  and  _352
REMARK  147  A    between atoms: _355  and  _357
REMARK  148  A    between atoms: _357  and  _358
REMARK  149  A    between atoms: _357  and  _360
REMARK  150  A    between atoms: _360  and  _361
REMARK  151  A    between atoms: _364  and  _366
REMARK  152  A    between atoms: _366  and  _367
REMARK  153  A    between atoms: _366  and  _369
REMARK  154  A    between atoms: _369  and  _370
REMARK  155  A    between atoms: _370  and  _371
REMARK  156  A    between atoms: _371  and  _372
REMARK  157  A    between atoms: _372  and  _373
REMARK  158  A    between atoms: _377  and  _379
REMARK  159  A    between atoms: _379  and  _380
REMARK  160  A    between atoms: _383  and  _385
REMARK  161  A    between atoms: _385  and  _386
REMARK  162  A    between atoms: _385  and  _388
REMARK  163  A    between atoms: _388  and  _389
REMARK  164  A    between atoms: _392  and  _394
REMARK  165  A    between atoms: _394  and  _395
REMARK  166  A    between atoms: _394  and  _397
REMARK  167  A    between atoms: _397  and  _398
REMARK  168  A    between atoms: _401  and  _403
REMARK  169  A    between atoms: _403  and  _404
REMARK  170  A    between atoms: _403  and  _406
REMARK  171  A    between atoms: _409  and  _411
REMARK  172  A    between atoms: _411  and  _412
REMARK  173  A    between atoms: _411  and  _414
REMARK  174  A    between atoms: _414  and  _415
REMARK  175  A    between atoms: _420  and  _422
REMARK  176  A    between atoms: _422  and  _423
REMARK  177  A    between atoms: _422  and  _425
REMARK  178  A    between atoms: _425  and  _426
REMARK  179  A    between atoms: _431  and  _433
REMARK  180  A    between atoms: _433  and  _434
REMARK  181  A    between atoms: _437  and  _438
REMARK  182  A    between atoms: _443  and  _445
REMARK  183  A    between atoms: _445  and  _446
REMARK  184  A    between atoms: _445  and  _448
REMARK  185  A    between atoms: _448  and  _449
REMARK  186  A    between atoms: _459  and  _461
REMARK  187  A    between atoms: _461  and  _462
REMARK  188  A    between atoms: _465  and  _467
REMARK  189  A    between atoms: _467  and  _468
REMARK  190  A    between atoms: _467  and  _470
REMARK  191  A    between atoms: _470  and  _471
REMARK  192  A    between atoms: _476  and  _477
REMARK  193  A    between atoms: _479  and  _481
REMARK  194  A    between atoms: _481  and  _482
REMARK  195  A    between atoms: _481  and  _484
REMARK  196  A    between atoms: _484  and  _485
REMARK  197  A    between atoms: _491  and  _493
REMARK  198  A    between atoms: _493  and  _494
REMARK  199  A    between atoms: _493  and  _496
REMARK  200  A    between atoms: _496  and  _497
REMARK  201  A    between atoms: _500  and  _502
REMARK  202  A    between atoms: _502  and  _503
REMARK  203  A    between atoms: _505  and  _507
REMARK  204  A    between atoms: _507  and  _508
REMARK  205  A    between atoms: _507  and  _510
REMARK  206  A    between atoms: _513  and  _515
REMARK  207  A    between atoms: _515  and  _516
REMARK  208  A    between atoms: _515  and  _518
REMARK  209  A    between atoms: _518  and  _519
REMARK  210  A    between atoms: _519  and  _520
REMARK  211  A    between atoms: _520  and  _521
REMARK  212  A    between atoms: _521  and  _522
REMARK  213  A    between atoms: _526  and  _528
REMARK  214  A    between atoms: _528  and  _529
REMARK  215  A    between atoms: _528  and  _531
REMARK  216  A    between atoms: _531  and  _532
REMARK  217  A    between atoms: _532  and  _533
REMARK  218  A    between atoms: _533  and  _534
REMARK  219  A    between atoms: _543  and  _545
REMARK  220  A    between atoms: _545  and  _546
REMARK  221  A    between atoms: _545  and  _548
REMARK  222  A    between atoms: _548  and  _549
REMARK  223  A    between atoms: _549  and  _550
REMARK  224  A    between atoms: _553  and  _555
REMARK  225  A    between atoms: _555  and  _556
REMARK  226  A    between atoms: _555  and  _558
REMARK  227  A    between atoms: _558  and  _559
REMARK  228  A    between atoms: _559  and  _560
REMARK  229  A    between atoms: _563  and  _564
REMARK  230  A    between atoms: _569  and  _571
REMARK  231  A    between atoms: _571  and  _572
REMARK  232  A    between atoms: _571  and  _574
REMARK  233  A    between atoms: _574  and  _575
REMARK  234  A    between atoms: _575  and  _576
REMARK  235  A    between atoms: _578  and  _580
REMARK  236  A    between atoms: _580  and  _581
REMARK  237  A    between atoms: _583  and  _585
REMARK  238  A    between atoms: _585  and  _586
REMARK  239  A    between atoms: _585  and  _588
REMARK  240  A    between atoms: _591  and  _593
REMARK  241  A    between atoms: _593  and  _594
REMARK  242  A    between atoms: _593  and  _596
REMARK  243  A    between atoms: _596  and  _597
REMARK  244  A    between atoms: _607  and  _609
REMARK  245  A    between atoms: _609  and  _610
REMARK  246  A    between atoms: _609  and  _612
REMARK  247  A    between atoms: _612  and  _613
REMARK  248  A    between atoms: _613  and  _614
REMARK  249  A    between atoms: _618  and  _619
REMARK  250  A    between atoms: _624  and  _626
REMARK  251  A    between atoms: _626  and  _627
REMARK  252  A    between atoms: _626  and  _629
REMARK  253  A    between atoms: _629  and  _630
REMARK  254  A    between atoms: _633  and  _635
REMARK  255  A    between atoms: _635  and  _636
REMARK  256  A    between atoms: _635  and  _638
REMARK  257  A    between atoms: _638  and  _639
REMARK  258  A    between atoms: _644  and  _646
REMARK  259  A    between atoms: _646  and  _647
REMARK  260  A    between atoms: _646  and  _649
REMARK  261  A    between atoms: _649  and  _650
REMARK                            x       y       z     vdW  Elec       q    Type
REMARK                         _______ _______ _______ _____ _____    ______ ____
ROOT
ATOM      1  O   HOH     1      14.326  14.240  17.308  0.00  0.00    +0.000 OA
ENDROOT
TORSDOF 0
REMARK  Name = ../refined-set-2016/2zym/2zym_pocket.pdb
REMARK  261 active torsions:
REMARK  status: ('A' for Active; 'I' for Inactive)
REMARK    1  A    between atoms: _1  and  _3
REMARK    2  A    between atoms: _3  and  _4
REMARK    3  A    between atoms: _3  and  _6
REMARK    4  A    between atoms: _6  and  _7
REMARK    5  A    between atoms: _7  and  _8
REMARK    6  A    between atoms: _11  and  _13
REMARK    7  A    between atoms: _13  and  _14
REMARK    8  A    between atoms: _13  and  _16
REMARK    9  A    between atoms: _16  and  _17
REMARK   10  A    between atoms: _22  and  _24
REMARK   11  A    between atoms: _24  and  _25
REMARK   12  A    between atoms: _28  and  _30
REMARK   13  A    between atoms: _30  and  _31
REMARK   14  A    between atoms: _30  and  _33
REMARK   15  A    between atoms: _33  and  _34
REMARK   16  A    between atoms: _37  and  _39
REMARK   17  A    between atoms: _39  and  _40
REMARK   18  A    between atoms: _39  and  _42
REMARK   19  A    between atoms: _42  and  _43
REMARK   20  A    between atoms: _43  and  _44
REMARK   21  A    between atoms: _49  and  _51
REMARK   22  A    between atoms: _51  and  _52
REMARK   23  A    between atoms: _51  and  _54
REMARK   24  A    between atoms: _57  and  _59
REMARK   25  A    between atoms: _59  and  _60
REMARK   26  A    between atoms: _63  and  _65
REMARK   27  A    between atoms: _65  and  _66
REMARK   28  A    between atoms: _65  and  _68
REMARK   29  A    between atoms: _68  and  _69
REMARK   30  A    between atoms: _72  and  _74
REMARK   31  A    between atoms: _74  and  _75
REMARK   32  A    between atoms: _74  and  _77
REMARK   33  A    between atoms: _77  and  _78
REMARK   34  A    between atoms: _81  and  _83
REMARK   35  A    between atoms: _83  and  _84
REMARK   36  A    between atoms: _83  and  _86
REMARK   37  A    between atoms: _86  and  _87
REMARK   38  A    between atoms: _87  and  _88
REMARK   39  A    between atoms: _88  and  _89
REMARK   40  A    between atoms: _89  and  _90
REMARK   41  A    between atoms: _94  and  _96
REMARK   42  A    between atoms: _96  and  _97
REMARK   43  A    between atoms: _96  and  _99
REMARK   44  A    between atoms: _99  and  _100
REMARK   45  A    between atoms: _100  and  _101
REMARK   46  A    between atoms: _106  and  _108
REMARK   47  A    between atoms: _108  and  _109
REMARK   48  A    between atoms: _108  and  _111
REMARK   49  A    between atoms: _111  and  _112
REMARK   50  A    between atoms: _112  and  _113
REMARK   51  A    between atoms: _118  and  _120
REMARK   52  A    between atoms: _120  and  _121
REMARK   53  A    between atoms: _120  and  _123
REMARK   54  A    between atoms: _123  and  _124
REMARK   55  A    between atoms: _124  and  _125
REMARK   56  A    between atoms: _128  and  _130
REMARK   57  A    between atoms: _130  and  _131
REMARK   58  A    between atoms: _130  and  _133
REMARK   59  A    between atoms: _133  and  _134
REMARK   60  A    between atoms: _134  and  _135
REMARK   61  A    between atoms: _135  and  _136
REMARK   62  A    between atoms: _136  and  _137
REMARK   63  A    between atoms: _141  and  _143
REMARK   64  A    between atoms: _143  and  _144
REMARK   65  A    between atoms: _143  and  _146
REMARK   66  A    between atoms: _146  and  _147
REMARK   67  A    between atoms: _150  and  _152
REMARK   68  A    between atoms: _152  and  _153
REMARK   69  A    between atoms: _152  and  _155
REMARK   70  A    between atoms: _155  and  _156
REMARK   71  A    between atoms: _167  and  _168
REMARK   72  A    between atoms: _173  and  _175
REMARK   73  A    between atoms: _175  and  _176
REMARK   74  A    between atoms: _175  and  _178
REMARK   75  A    between atoms: _178  and  _179
REMARK   76  A    between atoms: _184  and  _186
REMARK   77  A    between atoms: _186  and  _187
REMARK   78  A    between atoms: _186  and  _189
REMARK   79  A    between atoms: _189  and  _190
REMARK   80  A    between atoms: _193  and  _195
REMARK   81  A    between atoms: _195  and  _196
REMARK   82  A    between atoms: _195  and  _198
REMARK   83  A    between atoms: _198  and  _199
REMARK   84  A    between atoms: _199  and  _200
REMARK   85  A    between atoms: _200  and  _201
REMARK   86  A    between atoms: _210  and  _212
REMARK   87  A    between atoms: _212  and  _213
REMARK   88  A    between atoms: _212  and  _215
REMARK   89  A    between atoms: _215  and  _216
REMARK   90  A    between atoms: _219  and  _221
REMARK   91  A    between atoms: _221  and  _222
REMARK   92  A    between atoms: _221  and  _224
REMARK   93  A    between atoms: _224  and  _225
REMARK   94  A    between atoms: _225  and  _226
REMARK   95  A    between atoms: _229  and  _231
REMARK   96  A    between atoms: _231  and  _232
REMARK   97  A    between atoms: _231  and  _234
REMARK   98  A    between atoms: _234  and  _235
REMARK   99  A    between atoms: _235  and  _236
REMARK  100  A    between atoms: _236  and  _237
REMARK  101  A    between atoms: _237  and  _238
REMARK  102  A    between atoms: _242  and  _244
REMARK  103  A    between atoms: _244  and  _245
REMARK  104  A    between atoms: _248  and  _250
REMARK  105  A    between atoms: _250  and  _251
REMARK  106  A    between atoms: _250  and  _253
REMARK  107  A    between atoms: _253  and  _254
REMARK  108  A    between atoms: _254  and  _255
REMARK  109  A    between atoms: _258  and  _260
REMARK  110  A    between atoms: _260  and  _261
REMARK  111  A    between atoms: _260  and  _263
REMARK  112  A    between atoms: _263  and  _264
REMARK  113  A    between atoms: _266  and  _268
REMARK  114  A    between atoms: _268  and  _269
REMARK  115  A    between atoms: _268  and  _271
REMARK  116  A    between atoms: _274  and  _276
REMARK  117  A    between atoms: _276  and  _277
REMARK  118  A    between atoms: _276  and  _279
REMARK  119  A    between atoms: _279  and  _280
REMARK  120  A    between atoms: _280  and  _281
REMARK  121  A    between atoms: _284  and  _286
REMARK  122  A    between atoms: _286  and  _287
REMARK  123  A    between atoms: _286  and  _289
REMARK  124  A    between atoms: _289  and  _290
REMARK  125  A    between atoms: _295  and  _297
REMARK  126  A    between atoms: _297  and  _298
REMARK  127  A    between atoms: _297  and  _300
REMARK  128  A    between atoms: _300  and  _301
REMARK  129  A    between atoms: _306  and  _308
REMARK  130  A    between atoms: _308  and  _309
REMARK  131  A    between atoms: _308  and  _311
REMARK  132  A    between atoms: _311  and  _312
REMARK  133  A    between atoms: _318  and  _320
REMARK  134  A    between atoms: _320  and  _321
REMARK  135  A    between atoms: _320  and  _323
REMARK  136  A    between atoms: _323  and  _324
REMARK  137  A    between atoms: _329  and  _330
REMARK  138  A    between atoms: _332  and  _334
REMARK  139  A    between atoms: _334  and  _335
REMARK  140  A    between atoms: _334  and  _337
REMARK  141  A    between atoms: _337  and  _338
REMARK  142  A    between atoms: _343  and  _344
REMARK  143  A    between atoms: _346  and  _348
REMARK  144  A    between atoms: _348  and  _349
REMARK  145  A    between atoms: _348  and  _351
REMARK  146  A    between atoms: _351  and  _352
REMARK  147  A    between atoms: _355  and  _357
REMARK  148  A    between atoms: _357  and  _358
REMARK  149  A    between atoms: _357  and  _360
REMARK  150  A    between atoms: _360  and  _361
REMARK  151  A    between atoms: _364  and  _366
REMARK  152  A    between atoms: _366  and  _367
REMARK  153  A    between atoms: _366  and  _369
REMARK  154  A    between atoms: _369  and  _370
REMARK  155  A    between atoms: _370  and  _371
REMARK  156  A    between atoms: _371  and  _372
REMARK  157  A    between atoms: _372  and  _373
REMARK  158  A    between atoms: _377  and  _379
REMARK  159  A    between atoms: _379  and  _380
REMARK  160  A    between atoms: _383  and  _385
REMARK  161  A    between atoms: _385  and  _386
REMARK  162  A    between atoms: _385  and  _388
REMARK  163  A    between atoms: _388  and  _389
REMARK  164  A    between atoms: _392  and  _394
REMARK  165  A    between atoms: _394  and  _395
REMARK  166  A    between atoms: _394  and  _397
REMARK  167  A    between atoms: _397  and  _398
REMARK  168  A    between atoms: _401  and  _403
REMARK  169  A    between atoms: _403  and  _404
REMARK  170  A    between atoms: _403  and  _406
REMARK  171  A    between atoms: _409  and  _411
REMARK  172  A    between atoms: _411  and  _412
REMARK  173  A    between atoms: _411  and  _414
REMARK  174  A    between atoms: _414  and  _415
REMARK  175  A    between atoms: _420  and  _422
REMARK  176  A    between atoms: _422  and  _423
REMARK  177  A    between atoms: _422  and  _425
REMARK  178  A    between atoms: _425  and  _426
REMARK  179  A    between atoms: _431  and  _433
REMARK  180  A    between atoms: _433  and  _434
REMARK  181  A    between atoms: _437  and  _438
REMARK  182  A    between atoms: _443  and  _445
REMARK  183  A    between atoms: _445  and  _446
REMARK  184  A    between atoms: _445  and  _448
REMARK  185  A    between atoms: _448  and  _449
REMARK  186  A    between atoms: _459  and  _461
REMARK  187  A    between atoms: _461  and  _462
REMARK  188  A    between atoms: _465  and  _467
REMARK  189  A    between atoms: _467  and  _468
REMARK  190  A    between atoms: _467  and  _470
REMARK  191  A    between atoms: _470  and  _471
REMARK  192  A    between atoms: _476  and  _477
REMARK  193  A    between atoms: _479  and  _481
REMARK  194  A    between atoms: _481  and  _482
REMARK  195  A    between atoms: _481  and  _484
REMARK  196  A    between atoms: _484  and  _485
REMARK  197  A    between atoms: _491  and  _493
REMARK  198  A    between atoms: _493  and  _494
REMARK  199  A    between atoms: _493  and  _496
REMARK  200  A    between atoms: _496  and  _497
REMARK  201  A    between atoms: _500  and  _502
REMARK  202  A    between atoms: _502  and  _503
REMARK  203  A    between atoms: _505  and  _507
REMARK  204  A    between atoms: _507  and  _508
REMARK  205  A    between atoms: _507  and  _510
REMARK  206  A    between atoms: _513  and  _515
REMARK  207  A    between atoms: _515  and  _516
REMARK  208  A    between atoms: _515  and  _518
REMARK  209  A    between atoms: _518  and  _519
REMARK  210  A    between atoms: _519  and  _520
REMARK  211  A    between atoms: _520  and  _521
REMARK  212  A    between atoms: _521  and  _522
REMARK  213  A    between atoms: _526  and  _528
REMARK  214  A    between atoms: _528  and  _529
REMARK  215  A    between atoms: _528  and  _531
REMARK  216  A    between atoms: _531  and  _532
REMARK  217  A    between atoms: _532  and  _533
REMARK  218  A    between atoms: _533  and  _534
REMARK  219  A    between atoms: _543  and  _545
REMARK  220  A    between atoms: _545  and  _546
REMARK  221  A    between atoms: _545  and  _548
REMARK  222  A    between atoms: _548  and  _549
REMARK  223  A    between atoms: _549  and  _550
REMARK  224  A    between atoms: _553  and  _555
REMARK  225  A    between atoms: _555  and  _556
REMARK  226  A    between atoms: _555  and  _558
REMARK  227  A    between atoms: _558  and  _559
REMARK  228  A    between atoms: _559  and  _560
REMARK  229  A    between atoms: _563  and  _564
REMARK  230  A    between atoms: _569  and  _571
REMARK  231  A    between atoms: _571  and  _572
REMARK  232  A    between atoms: _571  and  _574
REMARK  233  A    between atoms: _574  and  _575
REMARK  234  A    between atoms: _575  and  _576
REMARK  235  A    between atoms: _578  and  _580
REMARK  236  A    between atoms: _580  and  _581
REMARK  237  A    between atoms: _583  and  _585
REMARK  238  A    between atoms: _585  and  _586
REMARK  239  A    between atoms: _585  and  _588
REMARK  240  A    between atoms: _591  and  _593
REMARK  241  A    between atoms: _593  and  _594
REMARK  242  A    between atoms: _593  and  _596
REMARK  243  A    between atoms: _596  and  _597
REMARK  244  A    between atoms: _607  and  _609
REMARK  245  A    between atoms: _609  and  _610
REMARK  246  A    between atoms: _609  and  _612
REMARK  247  A    between atoms: _612  and  _613
REMARK  248  A    between atoms: _613  and  _614
REMARK  249  A    between atoms: _618  and  _619
REMARK  250  A    between atoms: _624  and  _626
REMARK  251  A    between atoms: _626  and  _627
REMARK  252  A    between atoms: _626  and  _629
REMARK  253  A    between atoms: _629  and  _630
REMARK  254  A    between atoms: _633  and  _635
REMARK  255  A    between atoms: _635  and  _636
REMARK  256  A    between atoms: _635  and  _638
REMARK  257  A    between atoms: _638  and  _639
REMARK  258  A    between atoms: _644  and  _646
REMARK  259  A    between atoms: _646  and  _647
REMARK  260  A    between atoms: _646  and  _649
REMARK  261  A    between atoms: _649  and  _650
REMARK                            x       y       z     vdW  Elec       q    Type
REMARK                         _______ _______ _______ _____ _____    ______ ____
ROOT
ATOM      1  O   HOH     1      14.741  -2.179   9.960  0.00  0.00    +0.000 OA
ENDROOT
TORSDOF 0
REMARK  Name = ../refined-set-2016/2zym/2zym_pocket.pdb
REMARK  261 active torsions:
REMARK  status: ('A' for Active; 'I' for Inactive)
REMARK    1  A    between atoms: _1  and  _3
REMARK    2  A    between atoms: _3  and  _4
REMARK    3  A    between atoms: _3  and  _6
REMARK    4  A    between atoms: _6  and  _7
REMARK    5  A    between atoms: _7  and  _8
REMARK    6  A    between atoms: _11  and  _13
REMARK    7  A    between atoms: _13  and  _14
REMARK    8  A    between atoms: _13  and  _16
REMARK    9  A    between atoms: _16  and  _17
REMARK   10  A    between atoms: _22  and  _24
REMARK   11  A    between atoms: _24  and  _25
REMARK   12  A    between atoms: _28  and  _30
REMARK   13  A    between atoms: _30  and  _31
REMARK   14  A    between atoms: _30  and  _33
REMARK   15  A    between atoms: _33  and  _34
REMARK   16  A    between atoms: _37  and  _39
REMARK   17  A    between atoms: _39  and  _40
REMARK   18  A    between atoms: _39  and  _42
REMARK   19  A    between atoms: _42  and  _43
REMARK   20  A    between atoms: _43  and  _44
REMARK   21  A    between atoms: _49  and  _51
REMARK   22  A    between atoms: _51  and  _52
REMARK   23  A    between atoms: _51  and  _54
REMARK   24  A    between atoms: _57  and  _59
REMARK   25  A    between atoms: _59  and  _60
REMARK   26  A    between atoms: _63  and  _65
REMARK   27  A    between atoms: _65  and  _66
REMARK   28  A    between atoms: _65  and  _68
REMARK   29  A    between atoms: _68  and  _69
REMARK   30  A    between atoms: _72  and  _74
REMARK   31  A    between atoms: _74  and  _75
REMARK   32  A    between atoms: _74  and  _77
REMARK   33  A    between atoms: _77  and  _78
REMARK   34  A    between atoms: _81  and  _83
REMARK   35  A    between atoms: _83  and  _84
REMARK   36  A    between atoms: _83  and  _86
REMARK   37  A    between atoms: _86  and  _87
REMARK   38  A    between atoms: _87  and  _88
REMARK   39  A    between atoms: _88  and  _89
REMARK   40  A    between atoms: _89  and  _90
REMARK   41  A    between atoms: _94  and  _96
REMARK   42  A    between atoms: _96  and  _97
REMARK   43  A    between atoms: _96  and  _99
REMARK   44  A    between atoms: _99  and  _100
REMARK   45  A    between atoms: _100  and  _101
REMARK   46  A    between atoms: _106  and  _108
REMARK   47  A    between atoms: _108  and  _109
REMARK   48  A    between atoms: _108  and  _111
REMARK   49  A    between atoms: _111  and  _112
REMARK   50  A    between atoms: _112  and  _113
REMARK   51  A    between atoms: _118  and  _120
REMARK   52  A    between atoms: _120  and  _121
REMARK   53  A    between atoms: _120  and  _123
REMARK   54  A    between atoms: _123  and  _124
REMARK   55  A    between atoms: _124  and  _125
REMARK   56  A    between atoms: _128  and  _130
REMARK   57  A    between atoms: _130  and  _131
REMARK   58  A    between atoms: _130  and  _133
REMARK   59  A    between atoms: _133  and  _134
REMARK   60  A    between atoms: _134  and  _135
REMARK   61  A    between atoms: _135  and  _136
REMARK   62  A    between atoms: _136  and  _137
REMARK   63  A    between atoms: _141  and  _143
REMARK   64  A    between atoms: _143  and  _144
REMARK   65  A    between atoms: _143  and  _146
REMARK   66  A    between atoms: _146  and  _147
REMARK   67  A    between atoms: _150  and  _152
REMARK   68  A    between atoms: _152  and  _153
REMARK   69  A    between atoms: _152  and  _155
REMARK   70  A    between atoms: _155  and  _156
REMARK   71  A    between atoms: _167  and  _168
REMARK   72  A    between atoms: _173  and  _175
REMARK   73  A    between atoms: _175  and  _176
REMARK   74  A    between atoms: _175  and  _178
REMARK   75  A    between atoms: _178  and  _179
REMARK   76  A    between atoms: _184  and  _186
REMARK   77  A    between atoms: _186  and  _187
REMARK   78  A    between atoms: _186  and  _189
REMARK   79  A    between atoms: _189  and  _190
REMARK   80  A    between atoms: _193  and  _195
REMARK   81  A    between atoms: _195  and  _196
REMARK   82  A    between atoms: _195  and  _198
REMARK   83  A    between atoms: _198  and  _199
REMARK   84  A    between atoms: _199  and  _200
REMARK   85  A    between atoms: _200  and  _201
REMARK   86  A    between atoms: _210  and  _212
REMARK   87  A    between atoms: _212  and  _213
REMARK   88  A    between atoms: _212  and  _215
REMARK   89  A    between atoms: _215  and  _216
REMARK   90  A    between atoms: _219  and  _221
REMARK   91  A    between atoms: _221  and  _222
REMARK   92  A    between atoms: _221  and  _224
REMARK   93  A    between atoms: _224  and  _225
REMARK   94  A    between atoms: _225  and  _226
REMARK   95  A    between atoms: _229  and  _231
REMARK   96  A    between atoms: _231  and  _232
REMARK   97  A    between atoms: _231  and  _234
REMARK   98  A    between atoms: _234  and  _235
REMARK   99  A    between atoms: _235  and  _236
REMARK  100  A    between atoms: _236  and  _237
REMARK  101  A    between atoms: _237  and  _238
REMARK  102  A    between atoms: _242  and  _244
REMARK  103  A    between atoms: _244  and  _245
REMARK  104  A    between atoms: _248  and  _250
REMARK  105  A    between atoms: _250  and  _251
REMARK  106  A    between atoms: _250  and  _253
REMARK  107  A    between atoms: _253  and  _254
REMARK  108  A    between atoms: _254  and  _255
REMARK  109  A    between atoms: _258  and  _260
REMARK  110  A    between atoms: _260  and  _261
REMARK  111  A    between atoms: _260  and  _263
REMARK  112  A    between atoms: _263  and  _264
REMARK  113  A    between atoms: _266  and  _268
REMARK  114  A    between atoms: _268  and  _269
REMARK  115  A    between atoms: _268  and  _271
REMARK  116  A    between atoms: _274  and  _276
REMARK  117  A    between atoms: _276  and  _277
REMARK  118  A    between atoms: _276  and  _279
REMARK  119  A    between atoms: _279  and  _280
REMARK  120  A    between atoms: _280  and  _281
REMARK  121  A    between atoms: _284  and  _286
REMARK  122  A    between atoms: _286  and  _287
REMARK  123  A    between atoms: _286  and  _289
REMARK  124  A    between atoms: _289  and  _290
REMARK  125  A    between atoms: _295  and  _297
REMARK  126  A    between atoms: _297  and  _298
REMARK  127  A    between atoms: _297  and  _300
REMARK  128  A    between atoms: _300  and  _301
REMARK  129  A    between atoms: _306  and  _308
REMARK  130  A    between atoms: _308  and  _309
REMARK  131  A    between atoms: _308  and  _311
REMARK  132  A    between atoms: _311  and  _312
REMARK  133  A    between atoms: _318  and  _320
REMARK  134  A    between atoms: _320  and  _321
REMARK  135  A    between atoms: _320  and  _323
REMARK  136  A    between atoms: _323  and  _324
REMARK  137  A    between atoms: _329  and  _330
REMARK  138  A    between atoms: _332  and  _334
REMARK  139  A    between atoms: _334  and  _335
REMARK  140  A    between atoms: _334  and  _337
REMARK  141  A    between atoms: _337  and  _338
REMARK  142  A    between atoms: _343  and  _344
REMARK  143  A    between atoms: _346  and  _348
REMARK  144  A    between atoms: _348  and  _349
REMARK  145  A    between atoms: _348  and  _351
REMARK  146  A    between atoms: _351  and  _352
REMARK  147  A    between atoms: _355  and  _357
REMARK  148  A    between atoms: _357  and  _358
REMARK  149  A    between atoms: _357  and  _360
REMARK  150  A    between atoms: _360  and  _361
REMARK  151  A    between atoms: _364  and  _366
REMARK  152  A    between atoms: _366  and  _367
REMARK  153  A    between atoms: _366  and  _369
REMARK  154  A    between atoms: _369  and  _370
REMARK  155  A    between atoms: _370  and  _371
REMARK  156  A    between atoms: _371  and  _372
REMARK  157  A    between atoms: _372  and  _373
REMARK  158  A    between atoms: _377  and  _379
REMARK  159  A    between atoms: _379  and  _380
REMARK  160  A    between atoms: _383  and  _385
REMARK  161  A    between atoms: _385  and  _386
REMARK  162  A    between atoms: _385  and  _388
REMARK  163  A    between atoms: _388  and  _389
REMARK  164  A    between atoms: _392  and  _394
REMARK  165  A    between atoms: _394  and  _395
REMARK  166  A    between atoms: _394  and  _397
REMARK  167  A    between atoms: _397  and  _398
REMARK  168  A    between atoms: _401  and  _403
REMARK  169  A    between atoms: _403  and  _404
REMARK  170  A    between atoms: _403  and  _406
REMARK  171  A    between atoms: _409  and  _411
REMARK  172  A    between atoms: _411  and  _412
REMARK  173  A    between atoms: _411  and  _414
REMARK  174  A    between atoms: _414  and  _415
REMARK  175  A    between atoms: _420  and  _422
REMARK  176  A    between atoms: _422  and  _423
REMARK  177  A    between atoms: _422  and  _425
REMARK  178  A    between atoms: _425  and  _426
REMARK  179  A    between atoms: _431  and  _433
REMARK  180  A    between atoms: _433  and  _434
REMARK  181  A    between atoms: _437  and  _438
REMARK  182  A    between atoms: _443  and  _445
REMARK  183  A    between atoms: _445  and  _446
REMARK  184  A    between atoms: _445  and  _448
REMARK  185  A    between atoms: _448  and  _449
REMARK  186  A    between atoms: _459  and  _461
REMARK  187  A    between atoms: _461  and  _462
REMARK  188  A    between atoms: _465  and  _467
REMARK  189  A    between atoms: _467  and  _468
REMARK  190  A    between atoms: _467  and  _470
REMARK  191  A    between atoms: _470  and  _471
REMARK  192  A    between atoms: _476  and  _477
REMARK  193  A    between atoms: _479  and  _481
REMARK  194  A    between atoms: _481  and  _482
REMARK  195  A    between atoms: _481  and  _484
REMARK  196  A    between atoms: _484  and  _485
REMARK  197  A    between atoms: _491  and  _493
REMARK  198  A    between atoms: _493  and  _494
REMARK  199  A    between atoms: _493  and  _496
REMARK  200  A    between atoms: _496  and  _497
REMARK  201  A    between atoms: _500  and  _502
REMARK  202  A    between atoms: _502  and  _503
REMARK  203  A    between atoms: _505  and  _507
REMARK  204  A    between atoms: _507  and  _508
REMARK  205  A    between atoms: _507  and  _510
REMARK  206  A    between atoms: _513  and  _515
REMARK  207  A    between atoms: _515  and  _516
REMARK  208  A    between atoms: _515  and  _518
REMARK  209  A    between atoms: _518  and  _519
REMARK  210  A    between atoms: _519  and  _520
REMARK  211  A    between atoms: _520  and  _521
REMARK  212  A    between atoms: _521  and  _522
REMARK  213  A    between atoms: _526  and  _528
REMARK  214  A    between atoms: _528  and  _529
REMARK  215  A    between atoms: _528  and  _531
REMARK  216  A    between atoms: _531  and  _532
REMARK  217  A    between atoms: _532  and  _533
REMARK  218  A    between atoms: _533  and  _534
REMARK  219  A    between atoms: _543  and  _545
REMARK  220  A    between atoms: _545  and  _546
REMARK  221  A    between atoms: _545  and  _548
REMARK  222  A    between atoms: _548  and  _549
REMARK  223  A    between atoms: _549  and  _550
REMARK  224  A    between atoms: _553  and  _555
REMARK  225  A    between atoms: _555  and  _556
REMARK  226  A    between atoms: _555  and  _558
REMARK  227  A    between atoms: _558  and  _559
REMARK  228  A    between atoms: _559  and  _560
REMARK  229  A    between atoms: _563  and  _564
REMARK  230  A    between atoms: _569  and  _571
REMARK  231  A    between atoms: _571  and  _572
REMARK  232  A    between atoms: _571  and  _574
REMARK  233  A    between atoms: _574  and  _575
REMARK  234  A    between atoms: _575  and  _576
REMARK  235  A    between atoms: _578  and  _580
REMARK  236  A    between atoms: _580  and  _581
REMARK  237  A    between atoms: _583  and  _585
REMARK  238  A    between atoms: _585  and  _586
REMARK  239  A    between atoms: _585  and  _588
REMARK  240  A    between atoms: _591  and  _593
REMARK  241  A    between atoms: _593  and  _594
REMARK  242  A    between atoms: _593  and  _596
REMARK  243  A    between atoms: _596  and  _597
REMARK  244  A    between atoms: _607  and  _609
REMARK  245  A    between atoms: _609  and  _610
REMARK  246  A    between atoms: _609  and  _612
REMARK  247  A    between atoms: _612  and  _613
REMARK  248  A    between atoms: _613  and  _614
REMARK  249  A    between atoms: _618  and  _619
REMARK  250  A    between atoms: _624  and  _626
REMARK  251  A    between atoms: _626  and  _627
REMARK  252  A    between atoms: _626  and  _629
REMARK  253  A    between atoms: _629  and  _630
REMARK  254  A    between atoms: _633  and  _635
REMARK  255  A    between atoms: _635  and  _636
REMARK  256  A    between atoms: _635  and  _638
REMARK  257  A    between atoms: _638  and  _639
REMARK  258  A    between atoms: _644  and  _646
REMARK  259  A    between atoms: _646  and  _647
REMARK  260  A    between atoms: _646  and  _649
REMARK  261  A    between atoms: _649  and  _650
REMARK                            x       y       z     vdW  Elec       q    Type
REMARK                         _______ _______ _______ _____ _____    ______ ____
ROOT
ATOM      1  O   HOH     1      13.963  -6.785  12.001  0.00  0.00    +0.000 OA
ENDROOT
TORSDOF 0
REMARK  Name = ../refined-set-2016/2zym/2zym_pocket.pdb
REMARK  261 active torsions:
REMARK  status: ('A' for Active; 'I' for Inactive)
REMARK    1  A    between atoms: _1  and  _3
REMARK    2  A    between atoms: _3  and  _4
REMARK    3  A    between atoms: _3  and  _6
REMARK    4  A    between atoms: _6  and  _7
REMARK    5  A    between atoms: _7  and  _8
REMARK    6  A    between atoms: _11  and  _13
REMARK    7  A    between atoms: _13  and  _14
REMARK    8  A    between atoms: _13  and  _16
REMARK    9  A    between atoms: _16  and  _17
REMARK   10  A    between atoms: _22  and  _24
REMARK   11  A    between atoms: _24  and  _25
REMARK   12  A    between atoms: _28  and  _30
REMARK   13  A    between atoms: _30  and  _31
REMARK   14  A    between atoms: _30  and  _33
REMARK   15  A    between atoms: _33  and  _34
REMARK   16  A    between atoms: _37  and  _39
REMARK   17  A    between atoms: _39  and  _40
REMARK   18  A    between atoms: _39  and  _42
REMARK   19  A    between atoms: _42  and  _43
REMARK   20  A    between atoms: _43  and  _44
REMARK   21  A    between atoms: _49  and  _51
REMARK   22  A    between atoms: _51  and  _52
REMARK   23  A    between atoms: _51  and  _54
REMARK   24  A    between atoms: _57  and  _59
REMARK   25  A    between atoms: _59  and  _60
REMARK   26  A    between atoms: _63  and  _65
REMARK   27  A    between atoms: _65  and  _66
REMARK   28  A    between atoms: _65  and  _68
REMARK   29  A    between atoms: _68  and  _69
REMARK   30  A    between atoms: _72  and  _74
REMARK   31  A    between atoms: _74  and  _75
REMARK   32  A    between atoms: _74  and  _77
REMARK   33  A    between atoms: _77  and  _78
REMARK   34  A    between atoms: _81  and  _83
REMARK   35  A    between atoms: _83  and  _84
REMARK   36  A    between atoms: _83  and  _86
REMARK   37  A    between atoms: _86  and  _87
REMARK   38  A    between atoms: _87  and  _88
REMARK   39  A    between atoms: _88  and  _89
REMARK   40  A    between atoms: _89  and  _90
REMARK   41  A    between atoms: _94  and  _96
REMARK   42  A    between atoms: _96  and  _97
REMARK   43  A    between atoms: _96  and  _99
REMARK   44  A    between atoms: _99  and  _100
REMARK   45  A    between atoms: _100  and  _101
REMARK   46  A    between atoms: _106  and  _108
REMARK   47  A    between atoms: _108  and  _109
REMARK   48  A    between atoms: _108  and  _111
REMARK   49  A    between atoms: _111  and  _112
REMARK   50  A    between atoms: _112  and  _113
REMARK   51  A    between atoms: _118  and  _120
REMARK   52  A    between atoms: _120  and  _121
REMARK   53  A    between atoms: _120  and  _123
REMARK   54  A    between atoms: _123  and  _124
REMARK   55  A    between atoms: _124  and  _125
REMARK   56  A    between atoms: _128  and  _130
REMARK   57  A    between atoms: _130  and  _131
REMARK   58  A    between atoms: _130  and  _133
REMARK   59  A    between atoms: _133  and  _134
REMARK   60  A    between atoms: _134  and  _135
REMARK   61  A    between atoms: _135  and  _136
REMARK   62  A    between atoms: _136  and  _137
REMARK   63  A    between atoms: _141  and  _143
REMARK   64  A    between atoms: _143  and  _144
REMARK   65  A    between atoms: _143  and  _146
REMARK   66  A    between atoms: _146  and  _147
REMARK   67  A    between atoms: _150  and  _152
REMARK   68  A    between atoms: _152  and  _153
REMARK   69  A    between atoms: _152  and  _155
REMARK   70  A    between atoms: _155  and  _156
REMARK   71  A    between atoms: _167  and  _168
REMARK   72  A    between atoms: _173  and  _175
REMARK   73  A    between atoms: _175  and  _176
REMARK   74  A    between atoms: _175  and  _178
REMARK   75  A    between atoms: _178  and  _179
REMARK   76  A    between atoms: _184  and  _186
REMARK   77  A    between atoms: _186  and  _187
REMARK   78  A    between atoms: _186  and  _189
REMARK   79  A    between atoms: _189  and  _190
REMARK   80  A    between atoms: _193  and  _195
REMARK   81  A    between atoms: _195  and  _196
REMARK   82  A    between atoms: _195  and  _198
REMARK   83  A    between atoms: _198  and  _199
REMARK   84  A    between atoms: _199  and  _200
REMARK   85  A    between atoms: _200  and  _201
REMARK   86  A    between atoms: _210  and  _212
REMARK   87  A    between atoms: _212  and  _213
REMARK   88  A    between atoms: _212  and  _215
REMARK   89  A    between atoms: _215  and  _216
REMARK   90  A    between atoms: _219  and  _221
REMARK   91  A    between atoms: _221  and  _222
REMARK   92  A    between atoms: _221  and  _224
REMARK   93  A    between atoms: _224  and  _225
REMARK   94  A    between atoms: _225  and  _226
REMARK   95  A    between atoms: _229  and  _231
REMARK   96  A    between atoms: _231  and  _232
REMARK   97  A    between atoms: _231  and  _234
REMARK   98  A    between atoms: _234  and  _235
REMARK   99  A    between atoms: _235  and  _236
REMARK  100  A    between atoms: _236  and  _237
REMARK  101  A    between atoms: _237  and  _238
REMARK  102  A    between atoms: _242  and  _244
REMARK  103  A    between atoms: _244  and  _245
REMARK  104  A    between atoms: _248  and  _250
REMARK  105  A    between atoms: _250  and  _251
REMARK  106  A    between atoms: _250  and  _253
REMARK  107  A    between atoms: _253  and  _254
REMARK  108  A    between atoms: _254  and  _255
REMARK  109  A    between atoms: _258  and  _260
REMARK  110  A    between atoms: _260  and  _261
REMARK  111  A    between atoms: _260  and  _263
REMARK  112  A    between atoms: _263  and  _264
REMARK  113  A    between atoms: _266  and  _268
REMARK  114  A    between atoms: _268  and  _269
REMARK  115  A    between atoms: _268  and  _271
REMARK  116  A    between atoms: _274  and  _276
REMARK  117  A    between atoms: _276  and  _277
REMARK  118  A    between atoms: _276  and  _279
REMARK  119  A    between atoms: _279  and  _280
REMARK  120  A    between atoms: _280  and  _281
REMARK  121  A    between atoms: _284  and  _286
REMARK  122  A    between atoms: _286  and  _287
REMARK  123  A    between atoms: _286  and  _289
REMARK  124  A    between atoms: _289  and  _290
REMARK  125  A    between atoms: _295  and  _297
REMARK  126  A    between atoms: _297  and  _298
REMARK  127  A    between atoms: _297  and  _300
REMARK  128  A    between atoms: _300  and  _301
REMARK  129  A    between atoms: _306  and  _308
REMARK  130  A    between atoms: _308  and  _309
REMARK  131  A    between atoms: _308  and  _311
REMARK  132  A    between atoms: _311  and  _312
REMARK  133  A    between atoms: _318  and  _320
REMARK  134  A    between atoms: _320  and  _321
REMARK  135  A    between atoms: _320  and  _323
REMARK  136  A    between atoms: _323  and  _324
REMARK  137  A    between atoms: _329  and  _330
REMARK  138  A    between atoms: _332  and  _334
REMARK  139  A    between atoms: _334  and  _335
REMARK  140  A    between atoms: _334  and  _337
REMARK  141  A    between atoms: _337  and  _338
REMARK  142  A    between atoms: _343  and  _344
REMARK  143  A    between atoms: _346  and  _348
REMARK  144  A    between atoms: _348  and  _349
REMARK  145  A    between atoms: _348  and  _351
REMARK  146  A    between atoms: _351  and  _352
REMARK  147  A    between atoms: _355  and  _357
REMARK  148  A    between atoms: _357  and  _358
REMARK  149  A    between atoms: _357  and  _360
REMARK  150  A    between atoms: _360  and  _361
REMARK  151  A    between atoms: _364  and  _366
REMARK  152  A    between atoms: _366  and  _367
REMARK  153  A    between atoms: _366  and  _369
REMARK  154  A    between atoms: _369  and  _370
REMARK  155  A    between atoms: _370  and  _371
REMARK  156  A    between atoms: _371  and  _372
REMARK  157  A    between atoms: _372  and  _373
REMARK  158  A    between atoms: _377  and  _379
REMARK  159  A    between atoms: _379  and  _380
REMARK  160  A    between atoms: _383  and  _385
REMARK  161  A    between atoms: _385  and  _386
REMARK  162  A    between atoms: _385  and  _388
REMARK  163  A    between atoms: _388  and  _389
REMARK  164  A    between atoms: _392  and  _394
REMARK  165  A    between atoms: _394  and  _395
REMARK  166  A    between atoms: _394  and  _397
REMARK  167  A    between atoms: _397  and  _398
REMARK  168  A    between atoms: _401  and  _403
REMARK  169  A    between atoms: _403  and  _404
REMARK  170  A    between atoms: _403  and  _406
REMARK  171  A    between atoms: _409  and  _411
REMARK  172  A    between atoms: _411  and  _412
REMARK  173  A    between atoms: _411  and  _414
REMARK  174  A    between atoms: _414  and  _415
REMARK  175  A    between atoms: _420  and  _422
REMARK  176  A    between atoms: _422  and  _423
REMARK  177  A    between atoms: _422  and  _425
REMARK  178  A    between atoms: _425  and  _426
REMARK  179  A    between atoms: _431  and  _433
REMARK  180  A    between atoms: _433  and  _434
REMARK  181  A    between atoms: _437  and  _438
REMARK  182  A    between atoms: _443  and  _445
REMARK  183  A    between atoms: _445  and  _446
REMARK  184  A    between atoms: _445  and  _448
REMARK  185  A    between atoms: _448  and  _449
REMARK  186  A    between atoms: _459  and  _461
REMARK  187  A    between atoms: _461  and  _462
REMARK  188  A    between atoms: _465  and  _467
REMARK  189  A    between atoms: _467  and  _468
REMARK  190  A    between atoms: _467  and  _470
REMARK  191  A    between atoms: _470  and  _471
REMARK  192  A    between atoms: _476  and  _477
REMARK  193  A    between atoms: _479  and  _481
REMARK  194  A    between atoms: _481  and  _482
REMARK  195  A    between atoms: _481  and  _484
REMARK  196  A    between atoms: _484  and  _485
REMARK  197  A    between atoms: _491  and  _493
REMARK  198  A    between atoms: _493  and  _494
REMARK  199  A    between atoms: _493  and  _496
REMARK  200  A    between atoms: _496  and  _497
REMARK  201  A    between atoms: _500  and  _502
REMARK  202  A    between atoms: _502  and  _503
REMARK  203  A    between atoms: _505  and  _507
REMARK  204  A    between atoms: _507  and  _508
REMARK  205  A    between atoms: _507  and  _510
REMARK  206  A    between atoms: _513  and  _515
REMARK  207  A    between atoms: _515  and  _516
REMARK  208  A    between atoms: _515  and  _518
REMARK  209  A    between atoms: _518  and  _519
REMARK  210  A    between atoms: _519  and  _520
REMARK  211  A    between atoms: _520  and  _521
REMARK  212  A    between atoms: _521  and  _522
REMARK  213  A    between atoms: _526  and  _528
REMARK  214  A    between atoms: _528  and  _529
REMARK  215  A    between atoms: _528  and  _531
REMARK  216  A    between atoms: _531  and  _532
REMARK  217  A    between atoms: _532  and  _533
REMARK  218  A    between atoms: _533  and  _534
REMARK  219  A    between atoms: _543  and  _545
REMARK  220  A    between atoms: _545  and  _546
REMARK  221  A    between atoms: _545  and  _548
REMARK  222  A    between atoms: _548  and  _549
REMARK  223  A    between atoms: _549  and  _550
REMARK  224  A    between atoms: _553  and  _555
REMARK  225  A    between atoms: _555  and  _556
REMARK  226  A    between atoms: _555  and  _558
REMARK  227  A    between atoms: _558  and  _559
REMARK  228  A    between atoms: _559  and  _560
REMARK  229  A    between atoms: _563  and  _564
REMARK  230  A    between atoms: _569  and  _571
REMARK  231  A    between atoms: _571  and  _572
REMARK  232  A    between atoms: _571  and  _574
REMARK  233  A    between atoms: _574  and  _575
REMARK  234  A    between atoms: _575  and  _576
REMARK  235  A    between atoms: _578  and  _580
REMARK  236  A    between atoms: _580  and  _581
REMARK  237  A    between atoms: _583  and  _585
REMARK  238  A    between atoms: _585  and  _586
REMARK  239  A    between atoms: _585  and  _588
REMARK  240  A    between atoms: _591  and  _593
REMARK  241  A    between atoms: _593  and  _594
REMARK  242  A    between atoms: _593  and  _596
REMARK  243  A    between atoms: _596  and  _597
REMARK  244  A    between atoms: _607  and  _609
REMARK  245  A    between atoms: _609  and  _610
REMARK  246  A    between atoms: _609  and  _612
REMARK  247  A    between atoms: _612  and  _613
REMARK  248  A    between atoms: _613  and  _614
REMARK  249  A    between atoms: _618  and  _619
REMARK  250  A    between atoms: _624  and  _626
REMARK  251  A    between atoms: _626  and  _627
REMARK  252  A    between atoms: _626  and  _629
REMARK  253  A    between atoms: _629  and  _630
REMARK  254  A    between atoms: _633  and  _635
REMARK  255  A    between atoms: _635  and  _636
REMARK  256  A    between atoms: _635  and  _638
REMARK  257  A    between atoms: _638  and  _639
REMARK  258  A    between atoms: _644  and  _646
REMARK  259  A    between atoms: _646  and  _647
REMARK  260  A    between atoms: _646  and  _649
REMARK  261  A    between atoms: _649  and  _650
REMARK                            x       y       z     vdW  Elec       q    Type
REMARK                         _______ _______ _______ _____ _____    ______ ____
ROOT
ATOM      1  O   HOH     1      25.510   4.505  10.185  0.00  0.00    +0.000 OA
ENDROOT
TORSDOF 0
REMARK  Name = ../refined-set-2016/2zym/2zym_pocket.pdb
REMARK  261 active torsions:
REMARK  status: ('A' for Active; 'I' for Inactive)
REMARK    1  A    between atoms: _1  and  _3
REMARK    2  A    between atoms: _3  and  _4
REMARK    3  A    between atoms: _3  and  _6
REMARK    4  A    between atoms: _6  and  _7
REMARK    5  A    between atoms: _7  and  _8
REMARK    6  A    between atoms: _11  and  _13
REMARK    7  A    between atoms: _13  and  _14
REMARK    8  A    between atoms: _13  and  _16
REMARK    9  A    between atoms: _16  and  _17
REMARK   10  A    between atoms: _22  and  _24
REMARK   11  A    between atoms: _24  and  _25
REMARK   12  A    between atoms: _28  and  _30
REMARK   13  A    between atoms: _30  and  _31
REMARK   14  A    between atoms: _30  and  _33
REMARK   15  A    between atoms: _33  and  _34
REMARK   16  A    between atoms: _37  and  _39
REMARK   17  A    between atoms: _39  and  _40
REMARK   18  A    between atoms: _39  and  _42
REMARK   19  A    between atoms: _42  and  _43
REMARK   20  A    between atoms: _43  and  _44
REMARK   21  A    between atoms: _49  and  _51
REMARK   22  A    between atoms: _51  and  _52
REMARK   23  A    between atoms: _51  and  _54
REMARK   24  A    between atoms: _57  and  _59
REMARK   25  A    between atoms: _59  and  _60
REMARK   26  A    between atoms: _63  and  _65
REMARK   27  A    between atoms: _65  and  _66
REMARK   28  A    between atoms: _65  and  _68
REMARK   29  A    between atoms: _68  and  _69
REMARK   30  A    between atoms: _72  and  _74
REMARK   31  A    between atoms: _74  and  _75
REMARK   32  A    between atoms: _74  and  _77
REMARK   33  A    between atoms: _77  and  _78
REMARK   34  A    between atoms: _81  and  _83
REMARK   35  A    between atoms: _83  and  _84
REMARK   36  A    between atoms: _83  and  _86
REMARK   37  A    between atoms: _86  and  _87
REMARK   38  A    between atoms: _87  and  _88
REMARK   39  A    between atoms: _88  and  _89
REMARK   40  A    between atoms: _89  and  _90
REMARK   41  A    between atoms: _94  and  _96
REMARK   42  A    between atoms: _96  and  _97
REMARK   43  A    between atoms: _96  and  _99
REMARK   44  A    between atoms: _99  and  _100
REMARK   45  A    between atoms: _100  and  _101
REMARK   46  A    between atoms: _106  and  _108
REMARK   47  A    between atoms: _108  and  _109
REMARK   48  A    between atoms: _108  and  _111
REMARK   49  A    between atoms: _111  and  _112
REMARK   50  A    between atoms: _112  and  _113
REMARK   51  A    between atoms: _118  and  _120
REMARK   52  A    between atoms: _120  and  _121
REMARK   53  A    between atoms: _120  and  _123
REMARK   54  A    between atoms: _123  and  _124
REMARK   55  A    between atoms: _124  and  _125
REMARK   56  A    between atoms: _128  and  _130
REMARK   57  A    between atoms: _130  and  _131
REMARK   58  A    between atoms: _130  and  _133
REMARK   59  A    between atoms: _133  and  _134
REMARK   60  A    between atoms: _134  and  _135
REMARK   61  A    between atoms: _135  and  _136
REMARK   62  A    between atoms: _136  and  _137
REMARK   63  A    between atoms: _141  and  _143
REMARK   64  A    between atoms: _143  and  _144
REMARK   65  A    between atoms: _143  and  _146
REMARK   66  A    between atoms: _146  and  _147
REMARK   67  A    between atoms: _150  and  _152
REMARK   68  A    between atoms: _152  and  _153
REMARK   69  A    between atoms: _152  and  _155
REMARK   70  A    between atoms: _155  and  _156
REMARK   71  A    between atoms: _167  and  _168
REMARK   72  A    between atoms: _173  and  _175
REMARK   73  A    between atoms: _175  and  _176
REMARK   74  A    between atoms: _175  and  _178
REMARK   75  A    between atoms: _178  and  _179
REMARK   76  A    between atoms: _184  and  _186
REMARK   77  A    between atoms: _186  and  _187
REMARK   78  A    between atoms: _186  and  _189
REMARK   79  A    between atoms: _189  and  _190
REMARK   80  A    between atoms: _193  and  _195
REMARK   81  A    between atoms: _195  and  _196
REMARK   82  A    between atoms: _195  and  _198
REMARK   83  A    between atoms: _198  and  _199
REMARK   84  A    between atoms: _199  and  _200
REMARK   85  A    between atoms: _200  and  _201
REMARK   86  A    between atoms: _210  and  _212
REMARK   87  A    between atoms: _212  and  _213
REMARK   88  A    between atoms: _212  and  _215
REMARK   89  A    between atoms: _215  and  _216
REMARK   90  A    between atoms: _219  and  _221
REMARK   91  A    between atoms: _221  and  _222
REMARK   92  A    between atoms: _221  and  _224
REMARK   93  A    between atoms: _224  and  _225
REMARK   94  A    between atoms: _225  and  _226
REMARK   95  A    between atoms: _229  and  _231
REMARK   96  A    between atoms: _231  and  _232
REMARK   97  A    between atoms: _231  and  _234
REMARK   98  A    between atoms: _234  and  _235
REMARK   99  A    between atoms: _235  and  _236
REMARK  100  A    between atoms: _236  and  _237
REMARK  101  A    between atoms: _237  and  _238
REMARK  102  A    between atoms: _242  and  _244
REMARK  103  A    between atoms: _244  and  _245
REMARK  104  A    between atoms: _248  and  _250
REMARK  105  A    between atoms: _250  and  _251
REMARK  106  A    between atoms: _250  and  _253
REMARK  107  A    between atoms: _253  and  _254
REMARK  108  A    between atoms: _254  and  _255
REMARK  109  A    between atoms: _258  and  _260
REMARK  110  A    between atoms: _260  and  _261
REMARK  111  A    between atoms: _260  and  _263
REMARK  112  A    between atoms: _263  and  _264
REMARK  113  A    between atoms: _266  and  _268
REMARK  114  A    between atoms: _268  and  _269
REMARK  115  A    between atoms: _268  and  _271
REMARK  116  A    between atoms: _274  and  _276
REMARK  117  A    between atoms: _276  and  _277
REMARK  118  A    between atoms: _276  and  _279
REMARK  119  A    between atoms: _279  and  _280
REMARK  120  A    between atoms: _280  and  _281
REMARK  121  A    between atoms: _284  and  _286
REMARK  122  A    between atoms: _286  and  _287
REMARK  123  A    between atoms: _286  and  _289
REMARK  124  A    between atoms: _289  and  _290
REMARK  125  A    between atoms: _295  and  _297
REMARK  126  A    between atoms: _297  and  _298
REMARK  127  A    between atoms: _297  and  _300
REMARK  128  A    between atoms: _300  and  _301
REMARK  129  A    between atoms: _306  and  _308
REMARK  130  A    between atoms: _308  and  _309
REMARK  131  A    between atoms: _308  and  _311
REMARK  132  A    between atoms: _311  and  _312
REMARK  133  A    between atoms: _318  and  _320
REMARK  134  A    between atoms: _320  and  _321
REMARK  135  A    between atoms: _320  and  _323
REMARK  136  A    between atoms: _323  and  _324
REMARK  137  A    between atoms: _329  and  _330
REMARK  138  A    between atoms: _332  and  _334
REMARK  139  A    between atoms: _334  and  _335
REMARK  140  A    between atoms: _334  and  _337
REMARK  141  A    between atoms: _337  and  _338
REMARK  142  A    between atoms: _343  and  _344
REMARK  143  A    between atoms: _346  and  _348
REMARK  144  A    between atoms: _348  and  _349
REMARK  145  A    between atoms: _348  and  _351
REMARK  146  A    between atoms: _351  and  _352
REMARK  147  A    between atoms: _355  and  _357
REMARK  148  A    between atoms: _357  and  _358
REMARK  149  A    between atoms: _357  and  _360
REMARK  150  A    between atoms: _360  and  _361
REMARK  151  A    between atoms: _364  and  _366
REMARK  152  A    between atoms: _366  and  _367
REMARK  153  A    between atoms: _366  and  _369
REMARK  154  A    between atoms: _369  and  _370
REMARK  155  A    between atoms: _370  and  _371
REMARK  156  A    between atoms: _371  and  _372
REMARK  157  A    between atoms: _372  and  _373
REMARK  158  A    between atoms: _377  and  _379
REMARK  159  A    between atoms: _379  and  _380
REMARK  160  A    between atoms: _383  and  _385
REMARK  161  A    between atoms: _385  and  _386
REMARK  162  A    between atoms: _385  and  _388
REMARK  163  A    between atoms: _388  and  _389
REMARK  164  A    between atoms: _392  and  _394
REMARK  165  A    between atoms: _394  and  _395
REMARK  166  A    between atoms: _394  and  _397
REMARK  167  A    between atoms: _397  and  _398
REMARK  168  A    between atoms: _401  and  _403
REMARK  169  A    between atoms: _403  and  _404
REMARK  170  A    between atoms: _403  and  _406
REMARK  171  A    between atoms: _409  and  _411
REMARK  172  A    between atoms: _411  and  _412
REMARK  173  A    between atoms: _411  and  _414
REMARK  174  A    between atoms: _414  and  _415
REMARK  175  A    between atoms: _420  and  _422
REMARK  176  A    between atoms: _422  and  _423
REMARK  177  A    between atoms: _422  and  _425
REMARK  178  A    between atoms: _425  and  _426
REMARK  179  A    between atoms: _431  and  _433
REMARK  180  A    between atoms: _433  and  _434
REMARK  181  A    between atoms: _437  and  _438
REMARK  182  A    between atoms: _443  and  _445
REMARK  183  A    between atoms: _445  and  _446
REMARK  184  A    between atoms: _445  and  _448
REMARK  185  A    between atoms: _448  and  _449
REMARK  186  A    between atoms: _459  and  _461
REMARK  187  A    between atoms: _461  and  _462
REMARK  188  A    between atoms: _465  and  _467
REMARK  189  A    between atoms: _467  and  _468
REMARK  190  A    between atoms: _467  and  _470
REMARK  191  A    between atoms: _470  and  _471
REMARK  192  A    between atoms: _476  and  _477
REMARK  193  A    between atoms: _479  and  _481
REMARK  194  A    between atoms: _481  and  _482
REMARK  195  A    between atoms: _481  and  _484
REMARK  196  A    between atoms: _484  and  _485
REMARK  197  A    between atoms: _491  and  _493
REMARK  198  A    between atoms: _493  and  _494
REMARK  199  A    between atoms: _493  and  _496
REMARK  200  A    between atoms: _496  and  _497
REMARK  201  A    between atoms: _500  and  _502
REMARK  202  A    between atoms: _502  and  _503
REMARK  203  A    between atoms: _505  and  _507
REMARK  204  A    between atoms: _507  and  _508
REMARK  205  A    between atoms: _507  and  _510
REMARK  206  A    between atoms: _513  and  _515
REMARK  207  A    between atoms: _515  and  _516
REMARK  208  A    between atoms: _515  and  _518
REMARK  209  A    between atoms: _518  and  _519
REMARK  210  A    between atoms: _519  and  _520
REMARK  211  A    between atoms: _520  and  _521
REMARK  212  A    between atoms: _521  and  _522
REMARK  213  A    between atoms: _526  and  _528
REMARK  214  A    between atoms: _528  and  _529
REMARK  215  A    between atoms: _528  and  _531
REMARK  216  A    between atoms: _531  and  _532
REMARK  217  A    between atoms: _532  and  _533
REMARK  218  A    between atoms: _533  and  _534
REMARK  219  A    between atoms: _543  and  _545
REMARK  220  A    between atoms: _545  and  _546
REMARK  221  A    between atoms: _545  and  _548
REMARK  222  A    between atoms: _548  and  _549
REMARK  223  A    between atoms: _549  and  _550
REMARK  224  A    between atoms: _553  and  _555
REMARK  225  A    between atoms: _555  and  _556
REMARK  226  A    between atoms: _555  and  _558
REMARK  227  A    between atoms: _558  and  _559
REMARK  228  A    between atoms: _559  and  _560
REMARK  229  A    between atoms: _563  and  _564
REMARK  230  A    between atoms: _569  and  _571
REMARK  231  A    between atoms: _571  and  _572
REMARK  232  A    between atoms: _571  and  _574
REMARK  233  A    between atoms: _574  and  _575
REMARK  234  A    between atoms: _575  and  _576
REMARK  235  A    between atoms: _578  and  _580
REMARK  236  A    between atoms: _580  and  _581
REMARK  237  A    between atoms: _583  and  _585
REMARK  238  A    between atoms: _585  and  _586
REMARK  239  A    between atoms: _585  and  _588
REMARK  240  A    between atoms: _591  and  _593
REMARK  241  A    between atoms: _593  and  _594
REMARK  242  A    between atoms: _593  and  _596
REMARK  243  A    between atoms: _596  and  _597
REMARK  244  A    between atoms: _607  and  _609
REMARK  245  A    between atoms: _609  and  _610
REMARK  246  A    between atoms: _609  and  _612
REMARK  247  A    between atoms: _612  and  _613
REMARK  248  A    between atoms: _613  and  _614
REMARK  249  A    between atoms: _618  and  _619
REMARK  250  A    between atoms: _624  and  _626
REMARK  251  A    between atoms: _626  and  _627
REMARK  252  A    between atoms: _626  and  _629
REMARK  253  A    between atoms: _629  and  _630
REMARK  254  A    between atoms: _633  and  _635
REMARK  255  A    between atoms: _635  and  _636
REMARK  256  A    between atoms: _635  and  _638
REMARK  257  A    between atoms: _638  and  _639
REMARK  258  A    between atoms: _644  and  _646
REMARK  259  A    between atoms: _646  and  _647
REMARK  260  A    between atoms: _646  and  _649
REMARK  261  A    between atoms: _649  and  _650
REMARK                            x       y       z     vdW  Elec       q    Type
REMARK                         _______ _______ _______ _____ _____    ______ ____
ROOT
ATOM      1  O   HOH     1      22.562  11.137  11.309  0.00  0.00    +0.000 OA
ENDROOT
TORSDOF 0
REMARK  Name = ../refined-set-2016/2zym/2zym_pocket.pdb
REMARK  261 active torsions:
REMARK  status: ('A' for Active; 'I' for Inactive)
REMARK    1  A    between atoms: _1  and  _3
REMARK    2  A    between atoms: _3  and  _4
REMARK    3  A    between atoms: _3  and  _6
REMARK    4  A    between atoms: _6  and  _7
REMARK    5  A    between atoms: _7  and  _8
REMARK    6  A    between atoms: _11  and  _13
REMARK    7  A    between atoms: _13  and  _14
REMARK    8  A    between atoms: _13  and  _16
REMARK    9  A    between atoms: _16  and  _17
REMARK   10  A    between atoms: _22  and  _24
REMARK   11  A    between atoms: _24  and  _25
REMARK   12  A    between atoms: _28  and  _30
REMARK   13  A    between atoms: _30  and  _31
REMARK   14  A    between atoms: _30  and  _33
REMARK   15  A    between atoms: _33  and  _34
REMARK   16  A    between atoms: _37  and  _39
REMARK   17  A    between atoms: _39  and  _40
REMARK   18  A    between atoms: _39  and  _42
REMARK   19  A    between atoms: _42  and  _43
REMARK   20  A    between atoms: _43  and  _44
REMARK   21  A    between atoms: _49  and  _51
REMARK   22  A    between atoms: _51  and  _52
REMARK   23  A    between atoms: _51  and  _54
REMARK   24  A    between atoms: _57  and  _59
REMARK   25  A    between atoms: _59  and  _60
REMARK   26  A    between atoms: _63  and  _65
REMARK   27  A    between atoms: _65  and  _66
REMARK   28  A    between atoms: _65  and  _68
REMARK   29  A    between atoms: _68  and  _69
REMARK   30  A    between atoms: _72  and  _74
REMARK   31  A    between atoms: _74  and  _75
REMARK   32  A    between atoms: _74  and  _77
REMARK   33  A    between atoms: _77  and  _78
REMARK   34  A    between atoms: _81  and  _83
REMARK   35  A    between atoms: _83  and  _84
REMARK   36  A    between atoms: _83  and  _86
REMARK   37  A    between atoms: _86  and  _87
REMARK   38  A    between atoms: _87  and  _88
REMARK   39  A    between atoms: _88  and  _89
REMARK   40  A    between atoms: _89  and  _90
REMARK   41  A    between atoms: _94  and  _96
REMARK   42  A    between atoms: _96  and  _97
REMARK   43  A    between atoms: _96  and  _99
REMARK   44  A    between atoms: _99  and  _100
REMARK   45  A    between atoms: _100  and  _101
REMARK   46  A    between atoms: _106  and  _108
REMARK   47  A    between atoms: _108  and  _109
REMARK   48  A    between atoms: _108  and  _111
REMARK   49  A    between atoms: _111  and  _112
REMARK   50  A    between atoms: _112  and  _113
REMARK   51  A    between atoms: _118  and  _120
REMARK   52  A    between atoms: _120  and  _121
REMARK   53  A    between atoms: _120  and  _123
REMARK   54  A    between atoms: _123  and  _124
REMARK   55  A    between atoms: _124  and  _125
REMARK   56  A    between atoms: _128  and  _130
REMARK   57  A    between atoms: _130  and  _131
REMARK   58  A    between atoms: _130  and  _133
REMARK   59  A    between atoms: _133  and  _134
REMARK   60  A    between atoms: _134  and  _135
REMARK   61  A    between atoms: _135  and  _136
REMARK   62  A    between atoms: _136  and  _137
REMARK   63  A    between atoms: _141  and  _143
REMARK   64  A    between atoms: _143  and  _144
REMARK   65  A    between atoms: _143  and  _146
REMARK   66  A    between atoms: _146  and  _147
REMARK   67  A    between atoms: _150  and  _152
REMARK   68  A    between atoms: _152  and  _153
REMARK   69  A    between atoms: _152  and  _155
REMARK   70  A    between atoms: _155  and  _156
REMARK   71  A    between atoms: _167  and  _168
REMARK   72  A    between atoms: _173  and  _175
REMARK   73  A    between atoms: _175  and  _176
REMARK   74  A    between atoms: _175  and  _178
REMARK   75  A    between atoms: _178  and  _179
REMARK   76  A    between atoms: _184  and  _186
REMARK   77  A    between atoms: _186  and  _187
REMARK   78  A    between atoms: _186  and  _189
REMARK   79  A    between atoms: _189  and  _190
REMARK   80  A    between atoms: _193  and  _195
REMARK   81  A    between atoms: _195  and  _196
REMARK   82  A    between atoms: _195  and  _198
REMARK   83  A    between atoms: _198  and  _199
REMARK   84  A    between atoms: _199  and  _200
REMARK   85  A    between atoms: _200  and  _201
REMARK   86  A    between atoms: _210  and  _212
REMARK   87  A    between atoms: _212  and  _213
REMARK   88  A    between atoms: _212  and  _215
REMARK   89  A    between atoms: _215  and  _216
REMARK   90  A    between atoms: _219  and  _221
REMARK   91  A    between atoms: _221  and  _222
REMARK   92  A    between atoms: _221  and  _224
REMARK   93  A    between atoms: _224  and  _225
REMARK   94  A    between atoms: _225  and  _226
REMARK   95  A    between atoms: _229  and  _231
REMARK   96  A    between atoms: _231  and  _232
REMARK   97  A    between atoms: _231  and  _234
REMARK   98  A    between atoms: _234  and  _235
REMARK   99  A    between atoms: _235  and  _236
REMARK  100  A    between atoms: _236  and  _237
REMARK  101  A    between atoms: _237  and  _238
REMARK  102  A    between atoms: _242  and  _244
REMARK  103  A    between atoms: _244  and  _245
REMARK  104  A    between atoms: _248  and  _250
REMARK  105  A    between atoms: _250  and  _251
REMARK  106  A    between atoms: _250  and  _253
REMARK  107  A    between atoms: _253  and  _254
REMARK  108  A    between atoms: _254  and  _255
REMARK  109  A    between atoms: _258  and  _260
REMARK  110  A    between atoms: _260  and  _261
REMARK  111  A    between atoms: _260  and  _263
REMARK  112  A    between atoms: _263  and  _264
REMARK  113  A    between atoms: _266  and  _268
REMARK  114  A    between atoms: _268  and  _269
REMARK  115  A    between atoms: _268  and  _271
REMARK  116  A    between atoms: _274  and  _276
REMARK  117  A    between atoms: _276  and  _277
REMARK  118  A    between atoms: _276  and  _279
REMARK  119  A    between atoms: _279  and  _280
REMARK  120  A    between atoms: _280  and  _281
REMARK  121  A    between atoms: _284  and  _286
REMARK  122  A    between atoms: _286  and  _287
REMARK  123  A    between atoms: _286  and  _289
REMARK  124  A    between atoms: _289  and  _290
REMARK  125  A    between atoms: _295  and  _297
REMARK  126  A    between atoms: _297  and  _298
REMARK  127  A    between atoms: _297  and  _300
REMARK  128  A    between atoms: _300  and  _301
REMARK  129  A    between atoms: _306  and  _308
REMARK  130  A    between atoms: _308  and  _309
REMARK  131  A    between atoms: _308  and  _311
REMARK  132  A    between atoms: _311  and  _312
REMARK  133  A    between atoms: _318  and  _320
REMARK  134  A    between atoms: _320  and  _321
REMARK  135  A    between atoms: _320  and  _323
REMARK  136  A    between atoms: _323  and  _324
REMARK  137  A    between atoms: _329  and  _330
REMARK  138  A    between atoms: _332  and  _334
REMARK  139  A    between atoms: _334  and  _335
REMARK  140  A    between atoms: _334  and  _337
REMARK  141  A    between atoms: _337  and  _338
REMARK  142  A    between atoms: _343  and  _344
REMARK  143  A    between atoms: _346  and  _348
REMARK  144  A    between atoms: _348  and  _349
REMARK  145  A    between atoms: _348  and  _351
REMARK  146  A    between atoms: _351  and  _352
REMARK  147  A    between atoms: _355  and  _357
REMARK  148  A    between atoms: _357  and  _358
REMARK  149  A    between atoms: _357  and  _360
REMARK  150  A    between atoms: _360  and  _361
REMARK  151  A    between atoms: _364  and  _366
REMARK  152  A    between atoms: _366  and  _367
REMARK  153  A    between atoms: _366  and  _369
REMARK  154  A    between atoms: _369  and  _370
REMARK  155  A    between atoms: _370  and  _371
REMARK  156  A    between atoms: _371  and  _372
REMARK  157  A    between atoms: _372  and  _373
REMARK  158  A    between atoms: _377  and  _379
REMARK  159  A    between atoms: _379  and  _380
REMARK  160  A    between atoms: _383  and  _385
REMARK  161  A    between atoms: _385  and  _386
REMARK  162  A    between atoms: _385  and  _388
REMARK  163  A    between atoms: _388  and  _389
REMARK  164  A    between atoms: _392  and  _394
REMARK  165  A    between atoms: _394  and  _395
REMARK  166  A    between atoms: _394  and  _397
REMARK  167  A    between atoms: _397  and  _398
REMARK  168  A    between atoms: _401  and  _403
REMARK  169  A    between atoms: _403  and  _404
REMARK  170  A    between atoms: _403  and  _406
REMARK  171  A    between atoms: _409  and  _411
REMARK  172  A    between atoms: _411  and  _412
REMARK  173  A    between atoms: _411  and  _414
REMARK  174  A    between atoms: _414  and  _415
REMARK  175  A    between atoms: _420  and  _422
REMARK  176  A    between atoms: _422  and  _423
REMARK  177  A    between atoms: _422  and  _425
REMARK  178  A    between atoms: _425  and  _426
REMARK  179  A    between atoms: _431  and  _433
REMARK  180  A    between atoms: _433  and  _434
REMARK  181  A    between atoms: _437  and  _438
REMARK  182  A    between atoms: _443  and  _445
REMARK  183  A    between atoms: _445  and  _446
REMARK  184  A    between atoms: _445  and  _448
REMARK  185  A    between atoms: _448  and  _449
REMARK  186  A    between atoms: _459  and  _461
REMARK  187  A    between atoms: _461  and  _462
REMARK  188  A    between atoms: _465  and  _467
REMARK  189  A    between atoms: _467  and  _468
REMARK  190  A    between atoms: _467  and  _470
REMARK  191  A    between atoms: _470  and  _471
REMARK  192  A    between atoms: _476  and  _477
REMARK  193  A    between atoms: _479  and  _481
REMARK  194  A    between atoms: _481  and  _482
REMARK  195  A    between atoms: _481  and  _484
REMARK  196  A    between atoms: _484  and  _485
REMARK  197  A    between atoms: _491  and  _493
REMARK  198  A    between atoms: _493  and  _494
REMARK  199  A    between atoms: _493  and  _496
REMARK  200  A    between atoms: _496  and  _497
REMARK  201  A    between atoms: _500  and  _502
REMARK  202  A    between atoms: _502  and  _503
REMARK  203  A    between atoms: _505  and  _507
REMARK  204  A    between atoms: _507  and  _508
REMARK  205  A    between atoms: _507  and  _510
REMARK  206  A    between atoms: _513  and  _515
REMARK  207  A    between atoms: _515  and  _516
REMARK  208  A    between atoms: _515  and  _518
REMARK  209  A    between atoms: _518  and  _519
REMARK  210  A    between atoms: _519  and  _520
REMARK  211  A    between atoms: _520  and  _521
REMARK  212  A    between atoms: _521  and  _522
REMARK  213  A    between atoms: _526  and  _528
REMARK  214  A    between atoms: _528  and  _529
REMARK  215  A    between atoms: _528  and  _531
REMARK  216  A    between atoms: _531  and  _532
REMARK  217  A    between atoms: _532  and  _533
REMARK  218  A    between atoms: _533  and  _534
REMARK  219  A    between atoms: _543  and  _545
REMARK  220  A    between atoms: _545  and  _546
REMARK  221  A    between atoms: _545  and  _548
REMARK  222  A    between atoms: _548  and  _549
REMARK  223  A    between atoms: _549  and  _550
REMARK  224  A    between atoms: _553  and  _555
REMARK  225  A    between atoms: _555  and  _556
REMARK  226  A    between atoms: _555  and  _558
REMARK  227  A    between atoms: _558  and  _559
REMARK  228  A    between atoms: _559  and  _560
REMARK  229  A    between atoms: _563  and  _564
REMARK  230  A    between atoms: _569  and  _571
REMARK  231  A    between atoms: _571  and  _572
REMARK  232  A    between atoms: _571  and  _574
REMARK  233  A    between atoms: _574  and  _575
REMARK  234  A    between atoms: _575  and  _576
REMARK  235  A    between atoms: _578  and  _580
REMARK  236  A    between atoms: _580  and  _581
REMARK  237  A    between atoms: _583  and  _585
REMARK  238  A    between atoms: _585  and  _586
REMARK  239  A    between atoms: _585  and  _588
REMARK  240  A    between atoms: _591  and  _593
REMARK  241  A    between atoms: _593  and  _594
REMARK  242  A    between atoms: _593  and  _596
REMARK  243  A    between atoms: _596  and  _597
REMARK  244  A    between atoms: _607  and  _609
REMARK  245  A    between atoms: _609  and  _610
REMARK  246  A    between atoms: _609  and  _612
REMARK  247  A    between atoms: _612  and  _613
REMARK  248  A    between atoms: _613  and  _614
REMARK  249  A    between atoms: _618  and  _619
REMARK  250  A    between atoms: _624  and  _626
REMARK  251  A    between atoms: _626  and  _627
REMARK  252  A    between atoms: _626  and  _629
REMARK  253  A    between atoms: _629  and  _630
REMARK  254  A    between atoms: _633  and  _635
REMARK  255  A    between atoms: _635  and  _636
REMARK  256  A    between atoms: _635  and  _638
REMARK  257  A    between atoms: _638  and  _639
REMARK  258  A    between atoms: _644  and  _646
REMARK  259  A    between atoms: _646  and  _647
REMARK  260  A    between atoms: _646  and  _649
REMARK  261  A    between atoms: _649  and  _650
REMARK                            x       y       z     vdW  Elec       q    Type
REMARK                         _______ _______ _______ _____ _____    ______ ____
ROOT
ATOM      1  O   HOH     1      27.780  13.013  16.909  0.00  0.00    +0.000 OA
ENDROOT
TORSDOF 0
REMARK  Name = ../refined-set-2016/2zym/2zym_pocket.pdb
REMARK  261 active torsions:
REMARK  status: ('A' for Active; 'I' for Inactive)
REMARK    1  A    between atoms: _1  and  _3
REMARK    2  A    between atoms: _3  and  _4
REMARK    3  A    between atoms: _3  and  _6
REMARK    4  A    between atoms: _6  and  _7
REMARK    5  A    between atoms: _7  and  _8
REMARK    6  A    between atoms: _11  and  _13
REMARK    7  A    between atoms: _13  and  _14
REMARK    8  A    between atoms: _13  and  _16
REMARK    9  A    between atoms: _16  and  _17
REMARK   10  A    between atoms: _22  and  _24
REMARK   11  A    between atoms: _24  and  _25
REMARK   12  A    between atoms: _28  and  _30
REMARK   13  A    between atoms: _30  and  _31
REMARK   14  A    between atoms: _30  and  _33
REMARK   15  A    between atoms: _33  and  _34
REMARK   16  A    between atoms: _37  and  _39
REMARK   17  A    between atoms: _39  and  _40
REMARK   18  A    between atoms: _39  and  _42
REMARK   19  A    between atoms: _42  and  _43
REMARK   20  A    between atoms: _43  and  _44
REMARK   21  A    between atoms: _49  and  _51
REMARK   22  A    between atoms: _51  and  _52
REMARK   23  A    between atoms: _51  and  _54
REMARK   24  A    between atoms: _57  and  _59
REMARK   25  A    between atoms: _59  and  _60
REMARK   26  A    between atoms: _63  and  _65
REMARK   27  A    between atoms: _65  and  _66
REMARK   28  A    between atoms: _65  and  _68
REMARK   29  A    between atoms: _68  and  _69
REMARK   30  A    between atoms: _72  and  _74
REMARK   31  A    between atoms: _74  and  _75
REMARK   32  A    between atoms: _74  and  _77
REMARK   33  A    between atoms: _77  and  _78
REMARK   34  A    between atoms: _81  and  _83
REMARK   35  A    between atoms: _83  and  _84
REMARK   36  A    between atoms: _83  and  _86
REMARK   37  A    between atoms: _86  and  _87
REMARK   38  A    between atoms: _87  and  _88
REMARK   39  A    between atoms: _88  and  _89
REMARK   40  A    between atoms: _89  and  _90
REMARK   41  A    between atoms: _94  and  _96
REMARK   42  A    between atoms: _96  and  _97
REMARK   43  A    between atoms: _96  and  _99
REMARK   44  A    between atoms: _99  and  _100
REMARK   45  A    between atoms: _100  and  _101
REMARK   46  A    between atoms: _106  and  _108
REMARK   47  A    between atoms: _108  and  _109
REMARK   48  A    between atoms: _108  and  _111
REMARK   49  A    between atoms: _111  and  _112
REMARK   50  A    between atoms: _112  and  _113
REMARK   51  A    between atoms: _118  and  _120
REMARK   52  A    between atoms: _120  and  _121
REMARK   53  A    between atoms: _120  and  _123
REMARK   54  A    between atoms: _123  and  _124
REMARK   55  A    between atoms: _124  and  _125
REMARK   56  A    between atoms: _128  and  _130
REMARK   57  A    between atoms: _130  and  _131
REMARK   58  A    between atoms: _130  and  _133
REMARK   59  A    between atoms: _133  and  _134
REMARK   60  A    between atoms: _134  and  _135
REMARK   61  A    between atoms: _135  and  _136
REMARK   62  A    between atoms: _136  and  _137
REMARK   63  A    between atoms: _141  and  _143
REMARK   64  A    between atoms: _143  and  _144
REMARK   65  A    between atoms: _143  and  _146
REMARK   66  A    between atoms: _146  and  _147
REMARK   67  A    between atoms: _150  and  _152
REMARK   68  A    between atoms: _152  and  _153
REMARK   69  A    between atoms: _152  and  _155
REMARK   70  A    between atoms: _155  and  _156
REMARK   71  A    between atoms: _167  and  _168
REMARK   72  A    between atoms: _173  and  _175
REMARK   73  A    between atoms: _175  and  _176
REMARK   74  A    between atoms: _175  and  _178
REMARK   75  A    between atoms: _178  and  _179
REMARK   76  A    between atoms: _184  and  _186
REMARK   77  A    between atoms: _186  and  _187
REMARK   78  A    between atoms: _186  and  _189
REMARK   79  A    between atoms: _189  and  _190
REMARK   80  A    between atoms: _193  and  _195
REMARK   81  A    between atoms: _195  and  _196
REMARK   82  A    between atoms: _195  and  _198
REMARK   83  A    between atoms: _198  and  _199
REMARK   84  A    between atoms: _199  and  _200
REMARK   85  A    between atoms: _200  and  _201
REMARK   86  A    between atoms: _210  and  _212
REMARK   87  A    between atoms: _212  and  _213
REMARK   88  A    between atoms: _212  and  _215
REMARK   89  A    between atoms: _215  and  _216
REMARK   90  A    between atoms: _219  and  _221
REMARK   91  A    between atoms: _221  and  _222
REMARK   92  A    between atoms: _221  and  _224
REMARK   93  A    between atoms: _224  and  _225
REMARK   94  A    between atoms: _225  and  _226
REMARK   95  A    between atoms: _229  and  _231
REMARK   96  A    between atoms: _231  and  _232
REMARK   97  A    between atoms: _231  and  _234
REMARK   98  A    between atoms: _234  and  _235
REMARK   99  A    between atoms: _235  and  _236
REMARK  100  A    between atoms: _236  and  _237
REMARK  101  A    between atoms: _237  and  _238
REMARK  102  A    between atoms: _242  and  _244
REMARK  103  A    between atoms: _244  and  _245
REMARK  104  A    between atoms: _248  and  _250
REMARK  105  A    between atoms: _250  and  _251
REMARK  106  A    between atoms: _250  and  _253
REMARK  107  A    between atoms: _253  and  _254
REMARK  108  A    between atoms: _254  and  _255
REMARK  109  A    between atoms: _258  and  _260
REMARK  110  A    between atoms: _260  and  _261
REMARK  111  A    between atoms: _260  and  _263
REMARK  112  A    between atoms: _263  and  _264
REMARK  113  A    between atoms: _266  and  _268
REMARK  114  A    between atoms: _268  and  _269
REMARK  115  A    between atoms: _268  and  _271
REMARK  116  A    between atoms: _274  and  _276
REMARK  117  A    between atoms: _276  and  _277
REMARK  118  A    between atoms: _276  and  _279
REMARK  119  A    between atoms: _279  and  _280
REMARK  120  A    between atoms: _280  and  _281
REMARK  121  A    between atoms: _284  and  _286
REMARK  122  A    between atoms: _286  and  _287
REMARK  123  A    between atoms: _286  and  _289
REMARK  124  A    between atoms: _289  and  _290
REMARK  125  A    between atoms: _295  and  _297
REMARK  126  A    between atoms: _297  and  _298
REMARK  127  A    between atoms: _297  and  _300
REMARK  128  A    between atoms: _300  and  _301
REMARK  129  A    between atoms: _306  and  _308
REMARK  130  A    between atoms: _308  and  _309
REMARK  131  A    between atoms: _308  and  _311
REMARK  132  A    between atoms: _311  and  _312
REMARK  133  A    between atoms: _318  and  _320
REMARK  134  A    between atoms: _320  and  _321
REMARK  135  A    between atoms: _320  and  _323
REMARK  136  A    between atoms: _323  and  _324
REMARK  137  A    between atoms: _329  and  _330
REMARK  138  A    between atoms: _332  and  _334
REMARK  139  A    between atoms: _334  and  _335
REMARK  140  A    between atoms: _334  and  _337
REMARK  141  A    between atoms: _337  and  _338
REMARK  142  A    between atoms: _343  and  _344
REMARK  143  A    between atoms: _346  and  _348
REMARK  144  A    between atoms: _348  and  _349
REMARK  145  A    between atoms: _348  and  _351
REMARK  146  A    between atoms: _351  and  _352
REMARK  147  A    between atoms: _355  and  _357
REMARK  148  A    between atoms: _357  and  _358
REMARK  149  A    between atoms: _357  and  _360
REMARK  150  A    between atoms: _360  and  _361
REMARK  151  A    between atoms: _364  and  _366
REMARK  152  A    between atoms: _366  and  _367
REMARK  153  A    between atoms: _366  and  _369
REMARK  154  A    between atoms: _369  and  _370
REMARK  155  A    between atoms: _370  and  _371
REMARK  156  A    between atoms: _371  and  _372
REMARK  157  A    between atoms: _372  and  _373
REMARK  158  A    between atoms: _377  and  _379
REMARK  159  A    between atoms: _379  and  _380
REMARK  160  A    between atoms: _383  and  _385
REMARK  161  A    between atoms: _385  and  _386
REMARK  162  A    between atoms: _385  and  _388
REMARK  163  A    between atoms: _388  and  _389
REMARK  164  A    between atoms: _392  and  _394
REMARK  165  A    between atoms: _394  and  _395
REMARK  166  A    between atoms: _394  and  _397
REMARK  167  A    between atoms: _397  and  _398
REMARK  168  A    between atoms: _401  and  _403
REMARK  169  A    between atoms: _403  and  _404
REMARK  170  A    between atoms: _403  and  _406
REMARK  171  A    between atoms: _409  and  _411
REMARK  172  A    between atoms: _411  and  _412
REMARK  173  A    between atoms: _411  and  _414
REMARK  174  A    between atoms: _414  and  _415
REMARK  175  A    between atoms: _420  and  _422
REMARK  176  A    between atoms: _422  and  _423
REMARK  177  A    between atoms: _422  and  _425
REMARK  178  A    between atoms: _425  and  _426
REMARK  179  A    between atoms: _431  and  _433
REMARK  180  A    between atoms: _433  and  _434
REMARK  181  A    between atoms: _437  and  _438
REMARK  182  A    between atoms: _443  and  _445
REMARK  183  A    between atoms: _445  and  _446
REMARK  184  A    between atoms: _445  and  _448
REMARK  185  A    between atoms: _448  and  _449
REMARK  186  A    between atoms: _459  and  _461
REMARK  187  A    between atoms: _461  and  _462
REMARK  188  A    between atoms: _465  and  _467
REMARK  189  A    between atoms: _467  and  _468
REMARK  190  A    between atoms: _467  and  _470
REMARK  191  A    between atoms: _470  and  _471
REMARK  192  A    between atoms: _476  and  _477
REMARK  193  A    between atoms: _479  and  _481
REMARK  194  A    between atoms: _481  and  _482
REMARK  195  A    between atoms: _481  and  _484
REMARK  196  A    between atoms: _484  and  _485
REMARK  197  A    between atoms: _491  and  _493
REMARK  198  A    between atoms: _493  and  _494
REMARK  199  A    between atoms: _493  and  _496
REMARK  200  A    between atoms: _496  and  _497
REMARK  201  A    between atoms: _500  and  _502
REMARK  202  A    between atoms: _502  and  _503
REMARK  203  A    between atoms: _505  and  _507
REMARK  204  A    between atoms: _507  and  _508
REMARK  205  A    between atoms: _507  and  _510
REMARK  206  A    between atoms: _513  and  _515
REMARK  207  A    between atoms: _515  and  _516
REMARK  208  A    between atoms: _515  and  _518
REMARK  209  A    between atoms: _518  and  _519
REMARK  210  A    between atoms: _519  and  _520
REMARK  211  A    between atoms: _520  and  _521
REMARK  212  A    between atoms: _521  and  _522
REMARK  213  A    between atoms: _526  and  _528
REMARK  214  A    between atoms: _528  and  _529
REMARK  215  A    between atoms: _528  and  _531
REMARK  216  A    between atoms: _531  and  _532
REMARK  217  A    between atoms: _532  and  _533
REMARK  218  A    between atoms: _533  and  _534
REMARK  219  A    between atoms: _543  and  _545
REMARK  220  A    between atoms: _545  and  _546
REMARK  221  A    between atoms: _545  and  _548
REMARK  222  A    between atoms: _548  and  _549
REMARK  223  A    between atoms: _549  and  _550
REMARK  224  A    between atoms: _553  and  _555
REMARK  225  A    between atoms: _555  and  _556
REMARK  226  A    between atoms: _555  and  _558
REMARK  227  A    between atoms: _558  and  _559
REMARK  228  A    between atoms: _559  and  _560
REMARK  229  A    between atoms: _563  and  _564
REMARK  230  A    between atoms: _569  and  _571
REMARK  231  A    between atoms: _571  and  _572
REMARK  232  A    between atoms: _571  and  _574
REMARK  233  A    between atoms: _574  and  _575
REMARK  234  A    between atoms: _575  and  _576
REMARK  235  A    between atoms: _578  and  _580
REMARK  236  A    between atoms: _580  and  _581
REMARK  237  A    between atoms: _583  and  _585
REMARK  238  A    between atoms: _585  and  _586
REMARK  239  A    between atoms: _585  and  _588
REMARK  240  A    between atoms: _591  and  _593
REMARK  241  A    between atoms: _593  and  _594
REMARK  242  A    between atoms: _593  and  _596
REMARK  243  A    between atoms: _596  and  _597
REMARK  244  A    between atoms: _607  and  _609
REMARK  245  A    between atoms: _609  and  _610
REMARK  246  A    between atoms: _609  and  _612
REMARK  247  A    between atoms: _612  and  _613
REMARK  248  A    between atoms: _613  and  _614
REMARK  249  A    between atoms: _618  and  _619
REMARK  250  A    between atoms: _624  and  _626
REMARK  251  A    between atoms: _626  and  _627
REMARK  252  A    between atoms: _626  and  _629
REMARK  253  A    between atoms: _629  and  _630
REMARK  254  A    between atoms: _633  and  _635
REMARK  255  A    between atoms: _635  and  _636
REMARK  256  A    between atoms: _635  and  _638
REMARK  257  A    between atoms: _638  and  _639
REMARK  258  A    between atoms: _644  and  _646
REMARK  259  A    between atoms: _646  and  _647
REMARK  260  A    between atoms: _646  and  _649
REMARK  261  A    between atoms: _649  and  _650
REMARK                            x       y       z     vdW  Elec       q    Type
REMARK                         _______ _______ _______ _____ _____    ______ ____
ROOT
ATOM      1  O   HOH     1      20.725  13.138  17.145  0.00  0.00    +0.000 OA
ENDROOT
TORSDOF 0
REMARK  Name = ../refined-set-2016/2zym/2zym_pocket.pdb
REMARK  261 active torsions:
REMARK  status: ('A' for Active; 'I' for Inactive)
REMARK    1  A    between atoms: _1  and  _3
REMARK    2  A    between atoms: _3  and  _4
REMARK    3  A    between atoms: _3  and  _6
REMARK    4  A    between atoms: _6  and  _7
REMARK    5  A    between atoms: _7  and  _8
REMARK    6  A    between atoms: _11  and  _13
REMARK    7  A    between atoms: _13  and  _14
REMARK    8  A    between atoms: _13  and  _16
REMARK    9  A    between atoms: _16  and  _17
REMARK   10  A    between atoms: _22  and  _24
REMARK   11  A    between atoms: _24  and  _25
REMARK   12  A    between atoms: _28  and  _30
REMARK   13  A    between atoms: _30  and  _31
REMARK   14  A    between atoms: _30  and  _33
REMARK   15  A    between atoms: _33  and  _34
REMARK   16  A    between atoms: _37  and  _39
REMARK   17  A    between atoms: _39  and  _40
REMARK   18  A    between atoms: _39  and  _42
REMARK   19  A    between atoms: _42  and  _43
REMARK   20  A    between atoms: _43  and  _44
REMARK   21  A    between atoms: _49  and  _51
REMARK   22  A    between atoms: _51  and  _52
REMARK   23  A    between atoms: _51  and  _54
REMARK   24  A    between atoms: _57  and  _59
REMARK   25  A    between atoms: _59  and  _60
REMARK   26  A    between atoms: _63  and  _65
REMARK   27  A    between atoms: _65  and  _66
REMARK   28  A    between atoms: _65  and  _68
REMARK   29  A    between atoms: _68  and  _69
REMARK   30  A    between atoms: _72  and  _74
REMARK   31  A    between atoms: _74  and  _75
REMARK   32  A    between atoms: _74  and  _77
REMARK   33  A    between atoms: _77  and  _78
REMARK   34  A    between atoms: _81  and  _83
REMARK   35  A    between atoms: _83  and  _84
REMARK   36  A    between atoms: _83  and  _86
REMARK   37  A    between atoms: _86  and  _87
REMARK   38  A    between atoms: _87  and  _88
REMARK   39  A    between atoms: _88  and  _89
REMARK   40  A    between atoms: _89  and  _90
REMARK   41  A    between atoms: _94  and  _96
REMARK   42  A    between atoms: _96  and  _97
REMARK   43  A    between atoms: _96  and  _99
REMARK   44  A    between atoms: _99  and  _100
REMARK   45  A    between atoms: _100  and  _101
REMARK   46  A    between atoms: _106  and  _108
REMARK   47  A    between atoms: _108  and  _109
REMARK   48  A    between atoms: _108  and  _111
REMARK   49  A    between atoms: _111  and  _112
REMARK   50  A    between atoms: _112  and  _113
REMARK   51  A    between atoms: _118  and  _120
REMARK   52  A    between atoms: _120  and  _121
REMARK   53  A    between atoms: _120  and  _123
REMARK   54  A    between atoms: _123  and  _124
REMARK   55  A    between atoms: _124  and  _125
REMARK   56  A    between atoms: _128  and  _130
REMARK   57  A    between atoms: _130  and  _131
REMARK   58  A    between atoms: _130  and  _133
REMARK   59  A    between atoms: _133  and  _134
REMARK   60  A    between atoms: _134  and  _135
REMARK   61  A    between atoms: _135  and  _136
REMARK   62  A    between atoms: _136  and  _137
REMARK   63  A    between atoms: _141  and  _143
REMARK   64  A    between atoms: _143  and  _144
REMARK   65  A    between atoms: _143  and  _146
REMARK   66  A    between atoms: _146  and  _147
REMARK   67  A    between atoms: _150  and  _152
REMARK   68  A    between atoms: _152  and  _153
REMARK   69  A    between atoms: _152  and  _155
REMARK   70  A    between atoms: _155  and  _156
REMARK   71  A    between atoms: _167  and  _168
REMARK   72  A    between atoms: _173  and  _175
REMARK   73  A    between atoms: _175  and  _176
REMARK   74  A    between atoms: _175  and  _178
REMARK   75  A    between atoms: _178  and  _179
REMARK   76  A    between atoms: _184  and  _186
REMARK   77  A    between atoms: _186  and  _187
REMARK   78  A    between atoms: _186  and  _189
REMARK   79  A    between atoms: _189  and  _190
REMARK   80  A    between atoms: _193  and  _195
REMARK   81  A    between atoms: _195  and  _196
REMARK   82  A    between atoms: _195  and  _198
REMARK   83  A    between atoms: _198  and  _199
REMARK   84  A    between atoms: _199  and  _200
REMARK   85  A    between atoms: _200  and  _201
REMARK   86  A    between atoms: _210  and  _212
REMARK   87  A    between atoms: _212  and  _213
REMARK   88  A    between atoms: _212  and  _215
REMARK   89  A    between atoms: _215  and  _216
REMARK   90  A    between atoms: _219  and  _221
REMARK   91  A    between atoms: _221  and  _222
REMARK   92  A    between atoms: _221  and  _224
REMARK   93  A    between atoms: _224  and  _225
REMARK   94  A    between atoms: _225  and  _226
REMARK   95  A    between atoms: _229  and  _231
REMARK   96  A    between atoms: _231  and  _232
REMARK   97  A    between atoms: _231  and  _234
REMARK   98  A    between atoms: _234  and  _235
REMARK   99  A    between atoms: _235  and  _236
REMARK  100  A    between atoms: _236  and  _237
REMARK  101  A    between atoms: _237  and  _238
REMARK  102  A    between atoms: _242  and  _244
REMARK  103  A    between atoms: _244  and  _245
REMARK  104  A    between atoms: _248  and  _250
REMARK  105  A    between atoms: _250  and  _251
REMARK  106  A    between atoms: _250  and  _253
REMARK  107  A    between atoms: _253  and  _254
REMARK  108  A    between atoms: _254  and  _255
REMARK  109  A    between atoms: _258  and  _260
REMARK  110  A    between atoms: _260  and  _261
REMARK  111  A    between atoms: _260  and  _263
REMARK  112  A    between atoms: _263  and  _264
REMARK  113  A    between atoms: _266  and  _268
REMARK  114  A    between atoms: _268  and  _269
REMARK  115  A    between atoms: _268  and  _271
REMARK  116  A    between atoms: _274  and  _276
REMARK  117  A    between atoms: _276  and  _277
REMARK  118  A    between atoms: _276  and  _279
REMARK  119  A    between atoms: _279  and  _280
REMARK  120  A    between atoms: _280  and  _281
REMARK  121  A    between atoms: _284  and  _286
REMARK  122  A    between atoms: _286  and  _287
REMARK  123  A    between atoms: _286  and  _289
REMARK  124  A    between atoms: _289  and  _290
REMARK  125  A    between atoms: _295  and  _297
REMARK  126  A    between atoms: _297  and  _298
REMARK  127  A    between atoms: _297  and  _300
REMARK  128  A    between atoms: _300  and  _301
REMARK  129  A    between atoms: _306  and  _308
REMARK  130  A    between atoms: _308  and  _309
REMARK  131  A    between atoms: _308  and  _311
REMARK  132  A    between atoms: _311  and  _312
REMARK  133  A    between atoms: _318  and  _320
REMARK  134  A    between atoms: _320  and  _321
REMARK  135  A    between atoms: _320  and  _323
REMARK  136  A    between atoms: _323  and  _324
REMARK  137  A    between atoms: _329  and  _330
REMARK  138  A    between atoms: _332  and  _334
REMARK  139  A    between atoms: _334  and  _335
REMARK  140  A    between atoms: _334  and  _337
REMARK  141  A    between atoms: _337  and  _338
REMARK  142  A    between atoms: _343  and  _344
REMARK  143  A    between atoms: _346  and  _348
REMARK  144  A    between atoms: _348  and  _349
REMARK  145  A    between atoms: _348  and  _351
REMARK  146  A    between atoms: _351  and  _352
REMARK  147  A    between atoms: _355  and  _357
REMARK  148  A    between atoms: _357  and  _358
REMARK  149  A    between atoms: _357  and  _360
REMARK  150  A    between atoms: _360  and  _361
REMARK  151  A    between atoms: _364  and  _366
REMARK  152  A    between atoms: _366  and  _367
REMARK  153  A    between atoms: _366  and  _369
REMARK  154  A    between atoms: _369  and  _370
REMARK  155  A    between atoms: _370  and  _371
REMARK  156  A    between atoms: _371  and  _372
REMARK  157  A    between atoms: _372  and  _373
REMARK  158  A    between atoms: _377  and  _379
REMARK  159  A    between atoms: _379  and  _380
REMARK  160  A    between atoms: _383  and  _385
REMARK  161  A    between atoms: _385  and  _386
REMARK  162  A    between atoms: _385  and  _388
REMARK  163  A    between atoms: _388  and  _389
REMARK  164  A    between atoms: _392  and  _394
REMARK  165  A    between atoms: _394  and  _395
REMARK  166  A    between atoms: _394  and  _397
REMARK  167  A    between atoms: _397  and  _398
REMARK  168  A    between atoms: _401  and  _403
REMARK  169  A    between atoms: _403  and  _404
REMARK  170  A    between atoms: _403  and  _406
REMARK  171  A    between atoms: _409  and  _411
REMARK  172  A    between atoms: _411  and  _412
REMARK  173  A    between atoms: _411  and  _414
REMARK  174  A    between atoms: _414  and  _415
REMARK  175  A    between atoms: _420  and  _422
REMARK  176  A    between atoms: _422  and  _423
REMARK  177  A    between atoms: _422  and  _425
REMARK  178  A    between atoms: _425  and  _426
REMARK  179  A    between atoms: _431  and  _433
REMARK  180  A    between atoms: _433  and  _434
REMARK  181  A    between atoms: _437  and  _438
REMARK  182  A    between atoms: _443  and  _445
REMARK  183  A    between atoms: _445  and  _446
REMARK  184  A    between atoms: _445  and  _448
REMARK  185  A    between atoms: _448  and  _449
REMARK  186  A    between atoms: _459  and  _461
REMARK  187  A    between atoms: _461  and  _462
REMARK  188  A    between atoms: _465  and  _467
REMARK  189  A    between atoms: _467  and  _468
REMARK  190  A    between atoms: _467  and  _470
REMARK  191  A    between atoms: _470  and  _471
REMARK  192  A    between atoms: _476  and  _477
REMARK  193  A    between atoms: _479  and  _481
REMARK  194  A    between atoms: _481  and  _482
REMARK  195  A    between atoms: _481  and  _484
REMARK  196  A    between atoms: _484  and  _485
REMARK  197  A    between atoms: _491  and  _493
REMARK  198  A    between atoms: _493  and  _494
REMARK  199  A    between atoms: _493  and  _496
REMARK  200  A    between atoms: _496  and  _497
REMARK  201  A    between atoms: _500  and  _502
REMARK  202  A    between atoms: _502  and  _503
REMARK  203  A    between atoms: _505  and  _507
REMARK  204  A    between atoms: _507  and  _508
REMARK  205  A    between atoms: _507  and  _510
REMARK  206  A    between atoms: _513  and  _515
REMARK  207  A    between atoms: _515  and  _516
REMARK  208  A    between atoms: _515  and  _518
REMARK  209  A    between atoms: _518  and  _519
REMARK  210  A    between atoms: _519  and  _520
REMARK  211  A    between atoms: _520  and  _521
REMARK  212  A    between atoms: _521  and  _522
REMARK  213  A    between atoms: _526  and  _528
REMARK  214  A    between atoms: _528  and  _529
REMARK  215  A    between atoms: _528  and  _531
REMARK  216  A    between atoms: _531  and  _532
REMARK  217  A    between atoms: _532  and  _533
REMARK  218  A    between atoms: _533  and  _534
REMARK  219  A    between atoms: _543  and  _545
REMARK  220  A    between atoms: _545  and  _546
REMARK  221  A    between atoms: _545  and  _548
REMARK  222  A    between atoms: _548  and  _549
REMARK  223  A    between atoms: _549  and  _550
REMARK  224  A    between atoms: _553  and  _555
REMARK  225  A    between atoms: _555  and  _556
REMARK  226  A    between atoms: _555  and  _558
REMARK  227  A    between atoms: _558  and  _559
REMARK  228  A    between atoms: _559  and  _560
REMARK  229  A    between atoms: _563  and  _564
REMARK  230  A    between atoms: _569  and  _571
REMARK  231  A    between atoms: _571  and  _572
REMARK  232  A    between atoms: _571  and  _574
REMARK  233  A    between atoms: _574  and  _575
REMARK  234  A    between atoms: _575  and  _576
REMARK  235  A    between atoms: _578  and  _580
REMARK  236  A    between atoms: _580  and  _581
REMARK  237  A    between atoms: _583  and  _585
REMARK  238  A    between atoms: _585  and  _586
REMARK  239  A    between atoms: _585  and  _588
REMARK  240  A    between atoms: _591  and  _593
REMARK  241  A    between atoms: _593  and  _594
REMARK  242  A    between atoms: _593  and  _596
REMARK  243  A    between atoms: _596  and  _597
REMARK  244  A    between atoms: _607  and  _609
REMARK  245  A    between atoms: _609  and  _610
REMARK  246  A    between atoms: _609  and  _612
REMARK  247  A    between atoms: _612  and  _613
REMARK  248  A    between atoms: _613  and  _614
REMARK  249  A    between atoms: _618  and  _619
REMARK  250  A    between atoms: _624  and  _626
REMARK  251  A    between atoms: _626  and  _627
REMARK  252  A    between atoms: _626  and  _629
REMARK  253  A    between atoms: _629  and  _630
REMARK  254  A    between atoms: _633  and  _635
REMARK  255  A    between atoms: _635  and  _636
REMARK  256  A    between atoms: _635  and  _638
REMARK  257  A    between atoms: _638  and  _639
REMARK  258  A    between atoms: _644  and  _646
REMARK  259  A    between atoms: _646  and  _647
REMARK  260  A    between atoms: _646  and  _649
REMARK  261  A    between atoms: _649  and  _650
REMARK                            x       y       z     vdW  Elec       q    Type
REMARK                         _______ _______ _______ _____ _____    ______ ____
ROOT
ATOM      1  O   HOH     1      14.603  -2.032  16.226  0.00  0.00    +0.000 OA
ENDROOT
TORSDOF 0
REMARK  Name = ../refined-set-2016/2zym/2zym_pocket.pdb
REMARK  261 active torsions:
REMARK  status: ('A' for Active; 'I' for Inactive)
REMARK    1  A    between atoms: _1  and  _3
REMARK    2  A    between atoms: _3  and  _4
REMARK    3  A    between atoms: _3  and  _6
REMARK    4  A    between atoms: _6  and  _7
REMARK    5  A    between atoms: _7  and  _8
REMARK    6  A    between atoms: _11  and  _13
REMARK    7  A    between atoms: _13  and  _14
REMARK    8  A    between atoms: _13  and  _16
REMARK    9  A    between atoms: _16  and  _17
REMARK   10  A    between atoms: _22  and  _24
REMARK   11  A    between atoms: _24  and  _25
REMARK   12  A    between atoms: _28  and  _30
REMARK   13  A    between atoms: _30  and  _31
REMARK   14  A    between atoms: _30  and  _33
REMARK   15  A    between atoms: _33  and  _34
REMARK   16  A    between atoms: _37  and  _39
REMARK   17  A    between atoms: _39  and  _40
REMARK   18  A    between atoms: _39  and  _42
REMARK   19  A    between atoms: _42  and  _43
REMARK   20  A    between atoms: _43  and  _44
REMARK   21  A    between atoms: _49  and  _51
REMARK   22  A    between atoms: _51  and  _52
REMARK   23  A    between atoms: _51  and  _54
REMARK   24  A    between atoms: _57  and  _59
REMARK   25  A    between atoms: _59  and  _60
REMARK   26  A    between atoms: _63  and  _65
REMARK   27  A    between atoms: _65  and  _66
REMARK   28  A    between atoms: _65  and  _68
REMARK   29  A    between atoms: _68  and  _69
REMARK   30  A    between atoms: _72  and  _74
REMARK   31  A    between atoms: _74  and  _75
REMARK   32  A    between atoms: _74  and  _77
REMARK   33  A    between atoms: _77  and  _78
REMARK   34  A    between atoms: _81  and  _83
REMARK   35  A    between atoms: _83  and  _84
REMARK   36  A    between atoms: _83  and  _86
REMARK   37  A    between atoms: _86  and  _87
REMARK   38  A    between atoms: _87  and  _88
REMARK   39  A    between atoms: _88  and  _89
REMARK   40  A    between atoms: _89  and  _90
REMARK   41  A    between atoms: _94  and  _96
REMARK   42  A    between atoms: _96  and  _97
REMARK   43  A    between atoms: _96  and  _99
REMARK   44  A    between atoms: _99  and  _100
REMARK   45  A    between atoms: _100  and  _101
REMARK   46  A    between atoms: _106  and  _108
REMARK   47  A    between atoms: _108  and  _109
REMARK   48  A    between atoms: _108  and  _111
REMARK   49  A    between atoms: _111  and  _112
REMARK   50  A    between atoms: _112  and  _113
REMARK   51  A    between atoms: _118  and  _120
REMARK   52  A    between atoms: _120  and  _121
REMARK   53  A    between atoms: _120  and  _123
REMARK   54  A    between atoms: _123  and  _124
REMARK   55  A    between atoms: _124  and  _125
REMARK   56  A    between atoms: _128  and  _130
REMARK   57  A    between atoms: _130  and  _131
REMARK   58  A    between atoms: _130  and  _133
REMARK   59  A    between atoms: _133  and  _134
REMARK   60  A    between atoms: _134  and  _135
REMARK   61  A    between atoms: _135  and  _136
REMARK   62  A    between atoms: _136  and  _137
REMARK   63  A    between atoms: _141  and  _143
REMARK   64  A    between atoms: _143  and  _144
REMARK   65  A    between atoms: _143  and  _146
REMARK   66  A    between atoms: _146  and  _147
REMARK   67  A    between atoms: _150  and  _152
REMARK   68  A    between atoms: _152  and  _153
REMARK   69  A    between atoms: _152  and  _155
REMARK   70  A    between atoms: _155  and  _156
REMARK   71  A    between atoms: _167  and  _168
REMARK   72  A    between atoms: _173  and  _175
REMARK   73  A    between atoms: _175  and  _176
REMARK   74  A    between atoms: _175  and  _178
REMARK   75  A    between atoms: _178  and  _179
REMARK   76  A    between atoms: _184  and  _186
REMARK   77  A    between atoms: _186  and  _187
REMARK   78  A    between atoms: _186  and  _189
REMARK   79  A    between atoms: _189  and  _190
REMARK   80  A    between atoms: _193  and  _195
REMARK   81  A    between atoms: _195  and  _196
REMARK   82  A    between atoms: _195  and  _198
REMARK   83  A    between atoms: _198  and  _199
REMARK   84  A    between atoms: _199  and  _200
REMARK   85  A    between atoms: _200  and  _201
REMARK   86  A    between atoms: _210  and  _212
REMARK   87  A    between atoms: _212  and  _213
REMARK   88  A    between atoms: _212  and  _215
REMARK   89  A    between atoms: _215  and  _216
REMARK   90  A    between atoms: _219  and  _221
REMARK   91  A    between atoms: _221  and  _222
REMARK   92  A    between atoms: _221  and  _224
REMARK   93  A    between atoms: _224  and  _225
REMARK   94  A    between atoms: _225  and  _226
REMARK   95  A    between atoms: _229  and  _231
REMARK   96  A    between atoms: _231  and  _232
REMARK   97  A    between atoms: _231  and  _234
REMARK   98  A    between atoms: _234  and  _235
REMARK   99  A    between atoms: _235  and  _236
REMARK  100  A    between atoms: _236  and  _237
REMARK  101  A    between atoms: _237  and  _238
REMARK  102  A    between atoms: _242  and  _244
REMARK  103  A    between atoms: _244  and  _245
REMARK  104  A    between atoms: _248  and  _250
REMARK  105  A    between atoms: _250  and  _251
REMARK  106  A    between atoms: _250  and  _253
REMARK  107  A    between atoms: _253  and  _254
REMARK  108  A    between atoms: _254  and  _255
REMARK  109  A    between atoms: _258  and  _260
REMARK  110  A    between atoms: _260  and  _261
REMARK  111  A    between atoms: _260  and  _263
REMARK  112  A    between atoms: _263  and  _264
REMARK  113  A    between atoms: _266  and  _268
REMARK  114  A    between atoms: _268  and  _269
REMARK  115  A    between atoms: _268  and  _271
REMARK  116  A    between atoms: _274  and  _276
REMARK  117  A    between atoms: _276  and  _277
REMARK  118  A    between atoms: _276  and  _279
REMARK  119  A    between atoms: _279  and  _280
REMARK  120  A    between atoms: _280  and  _281
REMARK  121  A    between atoms: _284  and  _286
REMARK  122  A    between atoms: _286  and  _287
REMARK  123  A    between atoms: _286  and  _289
REMARK  124  A    between atoms: _289  and  _290
REMARK  125  A    between atoms: _295  and  _297
REMARK  126  A    between atoms: _297  and  _298
REMARK  127  A    between atoms: _297  and  _300
REMARK  128  A    between atoms: _300  and  _301
REMARK  129  A    between atoms: _306  and  _308
REMARK  130  A    between atoms: _308  and  _309
REMARK  131  A    between atoms: _308  and  _311
REMARK  132  A    between atoms: _311  and  _312
REMARK  133  A    between atoms: _318  and  _320
REMARK  134  A    between atoms: _320  and  _321
REMARK  135  A    between atoms: _320  and  _323
REMARK  136  A    between atoms: _323  and  _324
REMARK  137  A    between atoms: _329  and  _330
REMARK  138  A    between atoms: _332  and  _334
REMARK  139  A    between atoms: _334  and  _335
REMARK  140  A    between atoms: _334  and  _337
REMARK  141  A    between atoms: _337  and  _338
REMARK  142  A    between atoms: _343  and  _344
REMARK  143  A    between atoms: _346  and  _348
REMARK  144  A    between atoms: _348  and  _349
REMARK  145  A    between atoms: _348  and  _351
REMARK  146  A    between atoms: _351  and  _352
REMARK  147  A    between atoms: _355  and  _357
REMARK  148  A    between atoms: _357  and  _358
REMARK  149  A    between atoms: _357  and  _360
REMARK  150  A    between atoms: _360  and  _361
REMARK  151  A    between atoms: _364  and  _366
REMARK  152  A    between atoms: _366  and  _367
REMARK  153  A    between atoms: _366  and  _369
REMARK  154  A    between atoms: _369  and  _370
REMARK  155  A    between atoms: _370  and  _371
REMARK  156  A    between atoms: _371  and  _372
REMARK  157  A    between atoms: _372  and  _373
REMARK  158  A    between atoms: _377  and  _379
REMARK  159  A    between atoms: _379  and  _380
REMARK  160  A    between atoms: _383  and  _385
REMARK  161  A    between atoms: _385  and  _386
REMARK  162  A    between atoms: _385  and  _388
REMARK  163  A    between atoms: _388  and  _389
REMARK  164  A    between atoms: _392  and  _394
REMARK  165  A    between atoms: _394  and  _395
REMARK  166  A    between atoms: _394  and  _397
REMARK  167  A    between atoms: _397  and  _398
REMARK  168  A    between atoms: _401  and  _403
REMARK  169  A    between atoms: _403  and  _404
REMARK  170  A    between atoms: _403  and  _406
REMARK  171  A    between atoms: _409  and  _411
REMARK  172  A    between atoms: _411  and  _412
REMARK  173  A    between atoms: _411  and  _414
REMARK  174  A    between atoms: _414  and  _415
REMARK  175  A    between atoms: _420  and  _422
REMARK  176  A    between atoms: _422  and  _423
REMARK  177  A    between atoms: _422  and  _425
REMARK  178  A    between atoms: _425  and  _426
REMARK  179  A    between atoms: _431  and  _433
REMARK  180  A    between atoms: _433  and  _434
REMARK  181  A    between atoms: _437  and  _438
REMARK  182  A    between atoms: _443  and  _445
REMARK  183  A    between atoms: _445  and  _446
REMARK  184  A    between atoms: _445  and  _448
REMARK  185  A    between atoms: _448  and  _449
REMARK  186  A    between atoms: _459  and  _461
REMARK  187  A    between atoms: _461  and  _462
REMARK  188  A    between atoms: _465  and  _467
REMARK  189  A    between atoms: _467  and  _468
REMARK  190  A    between atoms: _467  and  _470
REMARK  191  A    between atoms: _470  and  _471
REMARK  192  A    between atoms: _476  and  _477
REMARK  193  A    between atoms: _479  and  _481
REMARK  194  A    between atoms: _481  and  _482
REMARK  195  A    between atoms: _481  and  _484
REMARK  196  A    between atoms: _484  and  _485
REMARK  197  A    between atoms: _491  and  _493
REMARK  198  A    between atoms: _493  and  _494
REMARK  199  A    between atoms: _493  and  _496
REMARK  200  A    between atoms: _496  and  _497
REMARK  201  A    between atoms: _500  and  _502
REMARK  202  A    between atoms: _502  and  _503
REMARK  203  A    between atoms: _505  and  _507
REMARK  204  A    between atoms: _507  and  _508
REMARK  205  A    between atoms: _507  and  _510
REMARK  206  A    between atoms: _513  and  _515
REMARK  207  A    between atoms: _515  and  _516
REMARK  208  A    between atoms: _515  and  _518
REMARK  209  A    between atoms: _518  and  _519
REMARK  210  A    between atoms: _519  and  _520
REMARK  211  A    between atoms: _520  and  _521
REMARK  212  A    between atoms: _521  and  _522
REMARK  213  A    between atoms: _526  and  _528
REMARK  214  A    between atoms: _528  and  _529
REMARK  215  A    between atoms: _528  and  _531
REMARK  216  A    between atoms: _531  and  _532
REMARK  217  A    between atoms: _532  and  _533
REMARK  218  A    between atoms: _533  and  _534
REMARK  219  A    between atoms: _543  and  _545
REMARK  220  A    between atoms: _545  and  _546
REMARK  221  A    between atoms: _545  and  _548
REMARK  222  A    between atoms: _548  and  _549
REMARK  223  A    between atoms: _549  and  _550
REMARK  224  A    between atoms: _553  and  _555
REMARK  225  A    between atoms: _555  and  _556
REMARK  226  A    between atoms: _555  and  _558
REMARK  227  A    between atoms: _558  and  _559
REMARK  228  A    between atoms: _559  and  _560
REMARK  229  A    between atoms: _563  and  _564
REMARK  230  A    between atoms: _569  and  _571
REMARK  231  A    between atoms: _571  and  _572
REMARK  232  A    between atoms: _571  and  _574
REMARK  233  A    between atoms: _574  and  _575
REMARK  234  A    between atoms: _575  and  _576
REMARK  235  A    between atoms: _578  and  _580
REMARK  236  A    between atoms: _580  and  _581
REMARK  237  A    between atoms: _583  and  _585
REMARK  238  A    between atoms: _585  and  _586
REMARK  239  A    between atoms: _585  and  _588
REMARK  240  A    between atoms: _591  and  _593
REMARK  241  A    between atoms: _593  and  _594
REMARK  242  A    between atoms: _593  and  _596
REMARK  243  A    between atoms: _596  and  _597
REMARK  244  A    between atoms: _607  and  _609
REMARK  245  A    between atoms: _609  and  _610
REMARK  246  A    between atoms: _609  and  _612
REMARK  247  A    between atoms: _612  and  _613
REMARK  248  A    between atoms: _613  and  _614
REMARK  249  A    between atoms: _618  and  _619
REMARK  250  A    between atoms: _624  and  _626
REMARK  251  A    between atoms: _626  and  _627
REMARK  252  A    between atoms: _626  and  _629
REMARK  253  A    between atoms: _629  and  _630
REMARK  254  A    between atoms: _633  and  _635
REMARK  255  A    between atoms: _635  and  _636
REMARK  256  A    between atoms: _635  and  _638
REMARK  257  A    between atoms: _638  and  _639
REMARK  258  A    between atoms: _644  and  _646
REMARK  259  A    between atoms: _646  and  _647
REMARK  260  A    between atoms: _646  and  _649
REMARK  261  A    between atoms: _649  and  _650
REMARK                            x       y       z     vdW  Elec       q    Type
REMARK                         _______ _______ _______ _____ _____    ______ ____
ROOT
ATOM      1  O   HOH     1      25.137  11.613  16.423  0.00  0.00    +0.000 OA
ENDROOT
TORSDOF 0
REMARK  Name = ../refined-set-2016/2zym/2zym_pocket.pdb
REMARK  261 active torsions:
REMARK  status: ('A' for Active; 'I' for Inactive)
REMARK    1  A    between atoms: _1  and  _3
REMARK    2  A    between atoms: _3  and  _4
REMARK    3  A    between atoms: _3  and  _6
REMARK    4  A    between atoms: _6  and  _7
REMARK    5  A    between atoms: _7  and  _8
REMARK    6  A    between atoms: _11  and  _13
REMARK    7  A    between atoms: _13  and  _14
REMARK    8  A    between atoms: _13  and  _16
REMARK    9  A    between atoms: _16  and  _17
REMARK   10  A    between atoms: _22  and  _24
REMARK   11  A    between atoms: _24  and  _25
REMARK   12  A    between atoms: _28  and  _30
REMARK   13  A    between atoms: _30  and  _31
REMARK   14  A    between atoms: _30  and  _33
REMARK   15  A    between atoms: _33  and  _34
REMARK   16  A    between atoms: _37  and  _39
REMARK   17  A    between atoms: _39  and  _40
REMARK   18  A    between atoms: _39  and  _42
REMARK   19  A    between atoms: _42  and  _43
REMARK   20  A    between atoms: _43  and  _44
REMARK   21  A    between atoms: _49  and  _51
REMARK   22  A    between atoms: _51  and  _52
REMARK   23  A    between atoms: _51  and  _54
REMARK   24  A    between atoms: _57  and  _59
REMARK   25  A    between atoms: _59  and  _60
REMARK   26  A    between atoms: _63  and  _65
REMARK   27  A    between atoms: _65  and  _66
REMARK   28  A    between atoms: _65  and  _68
REMARK   29  A    between atoms: _68  and  _69
REMARK   30  A    between atoms: _72  and  _74
REMARK   31  A    between atoms: _74  and  _75
REMARK   32  A    between atoms: _74  and  _77
REMARK   33  A    between atoms: _77  and  _78
REMARK   34  A    between atoms: _81  and  _83
REMARK   35  A    between atoms: _83  and  _84
REMARK   36  A    between atoms: _83  and  _86
REMARK   37  A    between atoms: _86  and  _87
REMARK   38  A    between atoms: _87  and  _88
REMARK   39  A    between atoms: _88  and  _89
REMARK   40  A    between atoms: _89  and  _90
REMARK   41  A    between atoms: _94  and  _96
REMARK   42  A    between atoms: _96  and  _97
REMARK   43  A    between atoms: _96  and  _99
REMARK   44  A    between atoms: _99  and  _100
REMARK   45  A    between atoms: _100  and  _101
REMARK   46  A    between atoms: _106  and  _108
REMARK   47  A    between atoms: _108  and  _109
REMARK   48  A    between atoms: _108  and  _111
REMARK   49  A    between atoms: _111  and  _112
REMARK   50  A    between atoms: _112  and  _113
REMARK   51  A    between atoms: _118  and  _120
REMARK   52  A    between atoms: _120  and  _121
REMARK   53  A    between atoms: _120  and  _123
REMARK   54  A    between atoms: _123  and  _124
REMARK   55  A    between atoms: _124  and  _125
REMARK   56  A    between atoms: _128  and  _130
REMARK   57  A    between atoms: _130  and  _131
REMARK   58  A    between atoms: _130  and  _133
REMARK   59  A    between atoms: _133  and  _134
REMARK   60  A    between atoms: _134  and  _135
REMARK   61  A    between atoms: _135  and  _136
REMARK   62  A    between atoms: _136  and  _137
REMARK   63  A    between atoms: _141  and  _143
REMARK   64  A    between atoms: _143  and  _144
REMARK   65  A    between atoms: _143  and  _146
REMARK   66  A    between atoms: _146  and  _147
REMARK   67  A    between atoms: _150  and  _152
REMARK   68  A    between atoms: _152  and  _153
REMARK   69  A    between atoms: _152  and  _155
REMARK   70  A    between atoms: _155  and  _156
REMARK   71  A    between atoms: _167  and  _168
REMARK   72  A    between atoms: _173  and  _175
REMARK   73  A    between atoms: _175  and  _176
REMARK   74  A    between atoms: _175  and  _178
REMARK   75  A    between atoms: _178  and  _179
REMARK   76  A    between atoms: _184  and  _186
REMARK   77  A    between atoms: _186  and  _187
REMARK   78  A    between atoms: _186  and  _189
REMARK   79  A    between atoms: _189  and  _190
REMARK   80  A    between atoms: _193  and  _195
REMARK   81  A    between atoms: _195  and  _196
REMARK   82  A    between atoms: _195  and  _198
REMARK   83  A    between atoms: _198  and  _199
REMARK   84  A    between atoms: _199  and  _200
REMARK   85  A    between atoms: _200  and  _201
REMARK   86  A    between atoms: _210  and  _212
REMARK   87  A    between atoms: _212  and  _213
REMARK   88  A    between atoms: _212  and  _215
REMARK   89  A    between atoms: _215  and  _216
REMARK   90  A    between atoms: _219  and  _221
REMARK   91  A    between atoms: _221  and  _222
REMARK   92  A    between atoms: _221  and  _224
REMARK   93  A    between atoms: _224  and  _225
REMARK   94  A    between atoms: _225  and  _226
REMARK   95  A    between atoms: _229  and  _231
REMARK   96  A    between atoms: _231  and  _232
REMARK   97  A    between atoms: _231  and  _234
REMARK   98  A    between atoms: _234  and  _235
REMARK   99  A    between atoms: _235  and  _236
REMARK  100  A    between atoms: _236  and  _237
REMARK  101  A    between atoms: _237  and  _238
REMARK  102  A    between atoms: _242  and  _244
REMARK  103  A    between atoms: _244  and  _245
REMARK  104  A    between atoms: _248  and  _250
REMARK  105  A    between atoms: _250  and  _251
REMARK  106  A    between atoms: _250  and  _253
REMARK  107  A    between atoms: _253  and  _254
REMARK  108  A    between atoms: _254  and  _255
REMARK  109  A    between atoms: _258  and  _260
REMARK  110  A    between atoms: _260  and  _261
REMARK  111  A    between atoms: _260  and  _263
REMARK  112  A    between atoms: _263  and  _264
REMARK  113  A    between atoms: _266  and  _268
REMARK  114  A    between atoms: _268  and  _269
REMARK  115  A    between atoms: _268  and  _271
REMARK  116  A    between atoms: _274  and  _276
REMARK  117  A    between atoms: _276  and  _277
REMARK  118  A    between atoms: _276  and  _279
REMARK  119  A    between atoms: _279  and  _280
REMARK  120  A    between atoms: _280  and  _281
REMARK  121  A    between atoms: _284  and  _286
REMARK  122  A    between atoms: _286  and  _287
REMARK  123  A    between atoms: _286  and  _289
REMARK  124  A    between atoms: _289  and  _290
REMARK  125  A    between atoms: _295  and  _297
REMARK  126  A    between atoms: _297  and  _298
REMARK  127  A    between atoms: _297  and  _300
REMARK  128  A    between atoms: _300  and  _301
REMARK  129  A    between atoms: _306  and  _308
REMARK  130  A    between atoms: _308  and  _309
REMARK  131  A    between atoms: _308  and  _311
REMARK  132  A    between atoms: _311  and  _312
REMARK  133  A    between atoms: _318  and  _320
REMARK  134  A    between atoms: _320  and  _321
REMARK  135  A    between atoms: _320  and  _323
REMARK  136  A    between atoms: _323  and  _324
REMARK  137  A    between atoms: _329  and  _330
REMARK  138  A    between atoms: _332  and  _334
REMARK  139  A    between atoms: _334  and  _335
REMARK  140  A    between atoms: _334  and  _337
REMARK  141  A    between atoms: _337  and  _338
REMARK  142  A    between atoms: _343  and  _344
REMARK  143  A    between atoms: _346  and  _348
REMARK  144  A    between atoms: _348  and  _349
REMARK  145  A    between atoms: _348  and  _351
REMARK  146  A    between atoms: _351  and  _352
REMARK  147  A    between atoms: _355  and  _357
REMARK  148  A    between atoms: _357  and  _358
REMARK  149  A    between atoms: _357  and  _360
REMARK  150  A    between atoms: _360  and  _361
REMARK  151  A    between atoms: _364  and  _366
REMARK  152  A    between atoms: _366  and  _367
REMARK  153  A    between atoms: _366  and  _369
REMARK  154  A    between atoms: _369  and  _370
REMARK  155  A    between atoms: _370  and  _371
REMARK  156  A    between atoms: _371  and  _372
REMARK  157  A    between atoms: _372  and  _373
REMARK  158  A    between atoms: _377  and  _379
REMARK  159  A    between atoms: _379  and  _380
REMARK  160  A    between atoms: _383  and  _385
REMARK  161  A    between atoms: _385  and  _386
REMARK  162  A    between atoms: _385  and  _388
REMARK  163  A    between atoms: _388  and  _389
REMARK  164  A    between atoms: _392  and  _394
REMARK  165  A    between atoms: _394  and  _395
REMARK  166  A    between atoms: _394  and  _397
REMARK  167  A    between atoms: _397  and  _398
REMARK  168  A    between atoms: _401  and  _403
REMARK  169  A    between atoms: _403  and  _404
REMARK  170  A    between atoms: _403  and  _406
REMARK  171  A    between atoms: _409  and  _411
REMARK  172  A    between atoms: _411  and  _412
REMARK  173  A    between atoms: _411  and  _414
REMARK  174  A    between atoms: _414  and  _415
REMARK  175  A    between atoms: _420  and  _422
REMARK  176  A    between atoms: _422  and  _423
REMARK  177  A    between atoms: _422  and  _425
REMARK  178  A    between atoms: _425  and  _426
REMARK  179  A    between atoms: _431  and  _433
REMARK  180  A    between atoms: _433  and  _434
REMARK  181  A    between atoms: _437  and  _438
REMARK  182  A    between atoms: _443  and  _445
REMARK  183  A    between atoms: _445  and  _446
REMARK  184  A    between atoms: _445  and  _448
REMARK  185  A    between atoms: _448  and  _449
REMARK  186  A    between atoms: _459  and  _461
REMARK  187  A    between atoms: _461  and  _462
REMARK  188  A    between atoms: _465  and  _467
REMARK  189  A    between atoms: _467  and  _468
REMARK  190  A    between atoms: _467  and  _470
REMARK  191  A    between atoms: _470  and  _471
REMARK  192  A    between atoms: _476  and  _477
REMARK  193  A    between atoms: _479  and  _481
REMARK  194  A    between atoms: _481  and  _482
REMARK  195  A    between atoms: _481  and  _484
REMARK  196  A    between atoms: _484  and  _485
REMARK  197  A    between atoms: _491  and  _493
REMARK  198  A    between atoms: _493  and  _494
REMARK  199  A    between atoms: _493  and  _496
REMARK  200  A    between atoms: _496  and  _497
REMARK  201  A    between atoms: _500  and  _502
REMARK  202  A    between atoms: _502  and  _503
REMARK  203  A    between atoms: _505  and  _507
REMARK  204  A    between atoms: _507  and  _508
REMARK  205  A    between atoms: _507  and  _510
REMARK  206  A    between atoms: _513  and  _515
REMARK  207  A    between atoms: _515  and  _516
REMARK  208  A    between atoms: _515  and  _518
REMARK  209  A    between atoms: _518  and  _519
REMARK  210  A    between atoms: _519  and  _520
REMARK  211  A    between atoms: _520  and  _521
REMARK  212  A    between atoms: _521  and  _522
REMARK  213  A    between atoms: _526  and  _528
REMARK  214  A    between atoms: _528  and  _529
REMARK  215  A    between atoms: _528  and  _531
REMARK  216  A    between atoms: _531  and  _532
REMARK  217  A    between atoms: _532  and  _533
REMARK  218  A    between atoms: _533  and  _534
REMARK  219  A    between atoms: _543  and  _545
REMARK  220  A    between atoms: _545  and  _546
REMARK  221  A    between atoms: _545  and  _548
REMARK  222  A    between atoms: _548  and  _549
REMARK  223  A    between atoms: _549  and  _550
REMARK  224  A    between atoms: _553  and  _555
REMARK  225  A    between atoms: _555  and  _556
REMARK  226  A    between atoms: _555  and  _558
REMARK  227  A    between atoms: _558  and  _559
REMARK  228  A    between atoms: _559  and  _560
REMARK  229  A    between atoms: _563  and  _564
REMARK  230  A    between atoms: _569  and  _571
REMARK  231  A    between atoms: _571  and  _572
REMARK  232  A    between atoms: _571  and  _574
REMARK  233  A    between atoms: _574  and  _575
REMARK  234  A    between atoms: _575  and  _576
REMARK  235  A    between atoms: _578  and  _580
REMARK  236  A    between atoms: _580  and  _581
REMARK  237  A    between atoms: _583  and  _585
REMARK  238  A    between atoms: _585  and  _586
REMARK  239  A    between atoms: _585  and  _588
REMARK  240  A    between atoms: _591  and  _593
REMARK  241  A    between atoms: _593  and  _594
REMARK  242  A    between atoms: _593  and  _596
REMARK  243  A    between atoms: _596  and  _597
REMARK  244  A    between atoms: _607  and  _609
REMARK  245  A    between atoms: _609  and  _610
REMARK  246  A    between atoms: _609  and  _612
REMARK  247  A    between atoms: _612  and  _613
REMARK  248  A    between atoms: _613  and  _614
REMARK  249  A    between atoms: _618  and  _619
REMARK  250  A    between atoms: _624  and  _626
REMARK  251  A    between atoms: _626  and  _627
REMARK  252  A    between atoms: _626  and  _629
REMARK  253  A    between atoms: _629  and  _630
REMARK  254  A    between atoms: _633  and  _635
REMARK  255  A    between atoms: _635  and  _636
REMARK  256  A    between atoms: _635  and  _638
REMARK  257  A    between atoms: _638  and  _639
REMARK  258  A    between atoms: _644  and  _646
REMARK  259  A    between atoms: _646  and  _647
REMARK  260  A    between atoms: _646  and  _649
REMARK  261  A    between atoms: _649  and  _650
REMARK                            x       y       z     vdW  Elec       q    Type
REMARK                         _______ _______ _______ _____ _____    ______ ____
ROOT
ATOM      1  O   HOH     1      25.041  11.455  19.048  0.00  0.00    +0.000 OA
ENDROOT
TORSDOF 0
REMARK  Name = ../refined-set-2016/2zym/2zym_pocket.pdb
REMARK  261 active torsions:
REMARK  status: ('A' for Active; 'I' for Inactive)
REMARK    1  A    between atoms: _1  and  _3
REMARK    2  A    between atoms: _3  and  _4
REMARK    3  A    between atoms: _3  and  _6
REMARK    4  A    between atoms: _6  and  _7
REMARK    5  A    between atoms: _7  and  _8
REMARK    6  A    between atoms: _11  and  _13
REMARK    7  A    between atoms: _13  and  _14
REMARK    8  A    between atoms: _13  and  _16
REMARK    9  A    between atoms: _16  and  _17
REMARK   10  A    between atoms: _22  and  _24
REMARK   11  A    between atoms: _24  and  _25
REMARK   12  A    between atoms: _28  and  _30
REMARK   13  A    between atoms: _30  and  _31
REMARK   14  A    between atoms: _30  and  _33
REMARK   15  A    between atoms: _33  and  _34
REMARK   16  A    between atoms: _37  and  _39
REMARK   17  A    between atoms: _39  and  _40
REMARK   18  A    between atoms: _39  and  _42
REMARK   19  A    between atoms: _42  and  _43
REMARK   20  A    between atoms: _43  and  _44
REMARK   21  A    between atoms: _49  and  _51
REMARK   22  A    between atoms: _51  and  _52
REMARK   23  A    between atoms: _51  and  _54
REMARK   24  A    between atoms: _57  and  _59
REMARK   25  A    between atoms: _59  and  _60
REMARK   26  A    between atoms: _63  and  _65
REMARK   27  A    between atoms: _65  and  _66
REMARK   28  A    between atoms: _65  and  _68
REMARK   29  A    between atoms: _68  and  _69
REMARK   30  A    between atoms: _72  and  _74
REMARK   31  A    between atoms: _74  and  _75
REMARK   32  A    between atoms: _74  and  _77
REMARK   33  A    between atoms: _77  and  _78
REMARK   34  A    between atoms: _81  and  _83
REMARK   35  A    between atoms: _83  and  _84
REMARK   36  A    between atoms: _83  and  _86
REMARK   37  A    between atoms: _86  and  _87
REMARK   38  A    between atoms: _87  and  _88
REMARK   39  A    between atoms: _88  and  _89
REMARK   40  A    between atoms: _89  and  _90
REMARK   41  A    between atoms: _94  and  _96
REMARK   42  A    between atoms: _96  and  _97
REMARK   43  A    between atoms: _96  and  _99
REMARK   44  A    between atoms: _99  and  _100
REMARK   45  A    between atoms: _100  and  _101
REMARK   46  A    between atoms: _106  and  _108
REMARK   47  A    between atoms: _108  and  _109
REMARK   48  A    between atoms: _108  and  _111
REMARK   49  A    between atoms: _111  and  _112
REMARK   50  A    between atoms: _112  and  _113
REMARK   51  A    between atoms: _118  and  _120
REMARK   52  A    between atoms: _120  and  _121
REMARK   53  A    between atoms: _120  and  _123
REMARK   54  A    between atoms: _123  and  _124
REMARK   55  A    between atoms: _124  and  _125
REMARK   56  A    between atoms: _128  and  _130
REMARK   57  A    between atoms: _130  and  _131
REMARK   58  A    between atoms: _130  and  _133
REMARK   59  A    between atoms: _133  and  _134
REMARK   60  A    between atoms: _134  and  _135
REMARK   61  A    between atoms: _135  and  _136
REMARK   62  A    between atoms: _136  and  _137
REMARK   63  A    between atoms: _141  and  _143
REMARK   64  A    between atoms: _143  and  _144
REMARK   65  A    between atoms: _143  and  _146
REMARK   66  A    between atoms: _146  and  _147
REMARK   67  A    between atoms: _150  and  _152
REMARK   68  A    between atoms: _152  and  _153
REMARK   69  A    between atoms: _152  and  _155
REMARK   70  A    between atoms: _155  and  _156
REMARK   71  A    between atoms: _167  and  _168
REMARK   72  A    between atoms: _173  and  _175
REMARK   73  A    between atoms: _175  and  _176
REMARK   74  A    between atoms: _175  and  _178
REMARK   75  A    between atoms: _178  and  _179
REMARK   76  A    between atoms: _184  and  _186
REMARK   77  A    between atoms: _186  and  _187
REMARK   78  A    between atoms: _186  and  _189
REMARK   79  A    between atoms: _189  and  _190
REMARK   80  A    between atoms: _193  and  _195
REMARK   81  A    between atoms: _195  and  _196
REMARK   82  A    between atoms: _195  and  _198
REMARK   83  A    between atoms: _198  and  _199
REMARK   84  A    between atoms: _199  and  _200
REMARK   85  A    between atoms: _200  and  _201
REMARK   86  A    between atoms: _210  and  _212
REMARK   87  A    between atoms: _212  and  _213
REMARK   88  A    between atoms: _212  and  _215
REMARK   89  A    between atoms: _215  and  _216
REMARK   90  A    between atoms: _219  and  _221
REMARK   91  A    between atoms: _221  and  _222
REMARK   92  A    between atoms: _221  and  _224
REMARK   93  A    between atoms: _224  and  _225
REMARK   94  A    between atoms: _225  and  _226
REMARK   95  A    between atoms: _229  and  _231
REMARK   96  A    between atoms: _231  and  _232
REMARK   97  A    between atoms: _231  and  _234
REMARK   98  A    between atoms: _234  and  _235
REMARK   99  A    between atoms: _235  and  _236
REMARK  100  A    between atoms: _236  and  _237
REMARK  101  A    between atoms: _237  and  _238
REMARK  102  A    between atoms: _242  and  _244
REMARK  103  A    between atoms: _244  and  _245
REMARK  104  A    between atoms: _248  and  _250
REMARK  105  A    between atoms: _250  and  _251
REMARK  106  A    between atoms: _250  and  _253
REMARK  107  A    between atoms: _253  and  _254
REMARK  108  A    between atoms: _254  and  _255
REMARK  109  A    between atoms: _258  and  _260
REMARK  110  A    between atoms: _260  and  _261
REMARK  111  A    between atoms: _260  and  _263
REMARK  112  A    between atoms: _263  and  _264
REMARK  113  A    between atoms: _266  and  _268
REMARK  114  A    between atoms: _268  and  _269
REMARK  115  A    between atoms: _268  and  _271
REMARK  116  A    between atoms: _274  and  _276
REMARK  117  A    between atoms: _276  and  _277
REMARK  118  A    between atoms: _276  and  _279
REMARK  119  A    between atoms: _279  and  _280
REMARK  120  A    between atoms: _280  and  _281
REMARK  121  A    between atoms: _284  and  _286
REMARK  122  A    between atoms: _286  and  _287
REMARK  123  A    between atoms: _286  and  _289
REMARK  124  A    between atoms: _289  and  _290
REMARK  125  A    between atoms: _295  and  _297
REMARK  126  A    between atoms: _297  and  _298
REMARK  127  A    between atoms: _297  and  _300
REMARK  128  A    between atoms: _300  and  _301
REMARK  129  A    between atoms: _306  and  _308
REMARK  130  A    between atoms: _308  and  _309
REMARK  131  A    between atoms: _308  and  _311
REMARK  132  A    between atoms: _311  and  _312
REMARK  133  A    between atoms: _318  and  _320
REMARK  134  A    between atoms: _320  and  _321
REMARK  135  A    between atoms: _320  and  _323
REMARK  136  A    between atoms: _323  and  _324
REMARK  137  A    between atoms: _329  and  _330
REMARK  138  A    between atoms: _332  and  _334
REMARK  139  A    between atoms: _334  and  _335
REMARK  140  A    between atoms: _334  and  _337
REMARK  141  A    between atoms: _337  and  _338
REMARK  142  A    between atoms: _343  and  _344
REMARK  143  A    between atoms: _346  and  _348
REMARK  144  A    between atoms: _348  and  _349
REMARK  145  A    between atoms: _348  and  _351
REMARK  146  A    between atoms: _351  and  _352
REMARK  147  A    between atoms: _355  and  _357
REMARK  148  A    between atoms: _357  and  _358
REMARK  149  A    between atoms: _357  and  _360
REMARK  150  A    between atoms: _360  and  _361
REMARK  151  A    between atoms: _364  and  _366
REMARK  152  A    between atoms: _366  and  _367
REMARK  153  A    between atoms: _366  and  _369
REMARK  154  A    between atoms: _369  and  _370
REMARK  155  A    between atoms: _370  and  _371
REMARK  156  A    between atoms: _371  and  _372
REMARK  157  A    between atoms: _372  and  _373
REMARK  158  A    between atoms: _377  and  _379
REMARK  159  A    between atoms: _379  and  _380
REMARK  160  A    between atoms: _383  and  _385
REMARK  161  A    between atoms: _385  and  _386
REMARK  162  A    between atoms: _385  and  _388
REMARK  163  A    between atoms: _388  and  _389
REMARK  164  A    between atoms: _392  and  _394
REMARK  165  A    between atoms: _394  and  _395
REMARK  166  A    between atoms: _394  and  _397
REMARK  167  A    between atoms: _397  and  _398
REMARK  168  A    between atoms: _401  and  _403
REMARK  169  A    between atoms: _403  and  _404
REMARK  170  A    between atoms: _403  and  _406
REMARK  171  A    between atoms: _409  and  _411
REMARK  172  A    between atoms: _411  and  _412
REMARK  173  A    between atoms: _411  and  _414
REMARK  174  A    between atoms: _414  and  _415
REMARK  175  A    between atoms: _420  and  _422
REMARK  176  A    between atoms: _422  and  _423
REMARK  177  A    between atoms: _422  and  _425
REMARK  178  A    between atoms: _425  and  _426
REMARK  179  A    between atoms: _431  and  _433
REMARK  180  A    between atoms: _433  and  _434
REMARK  181  A    between atoms: _437  and  _438
REMARK  182  A    between atoms: _443  and  _445
REMARK  183  A    between atoms: _445  and  _446
REMARK  184  A    between atoms: _445  and  _448
REMARK  185  A    between atoms: _448  and  _449
REMARK  186  A    between atoms: _459  and  _461
REMARK  187  A    between atoms: _461  and  _462
REMARK  188  A    between atoms: _465  and  _467
REMARK  189  A    between atoms: _467  and  _468
REMARK  190  A    between atoms: _467  and  _470
REMARK  191  A    between atoms: _470  and  _471
REMARK  192  A    between atoms: _476  and  _477
REMARK  193  A    between atoms: _479  and  _481
REMARK  194  A    between atoms: _481  and  _482
REMARK  195  A    between atoms: _481  and  _484
REMARK  196  A    between atoms: _484  and  _485
REMARK  197  A    between atoms: _491  and  _493
REMARK  198  A    between atoms: _493  and  _494
REMARK  199  A    between atoms: _493  and  _496
REMARK  200  A    between atoms: _496  and  _497
REMARK  201  A    between atoms: _500  and  _502
REMARK  202  A    between atoms: _502  and  _503
REMARK  203  A    between atoms: _505  and  _507
REMARK  204  A    between atoms: _507  and  _508
REMARK  205  A    between atoms: _507  and  _510
REMARK  206  A    between atoms: _513  and  _515
REMARK  207  A    between atoms: _515  and  _516
REMARK  208  A    between atoms: _515  and  _518
REMARK  209  A    between atoms: _518  and  _519
REMARK  210  A    between atoms: _519  and  _520
REMARK  211  A    between atoms: _520  and  _521
REMARK  212  A    between atoms: _521  and  _522
REMARK  213  A    between atoms: _526  and  _528
REMARK  214  A    between atoms: _528  and  _529
REMARK  215  A    between atoms: _528  and  _531
REMARK  216  A    between atoms: _531  and  _532
REMARK  217  A    between atoms: _532  and  _533
REMARK  218  A    between atoms: _533  and  _534
REMARK  219  A    between atoms: _543  and  _545
REMARK  220  A    between atoms: _545  and  _546
REMARK  221  A    between atoms: _545  and  _548
REMARK  222  A    between atoms: _548  and  _549
REMARK  223  A    between atoms: _549  and  _550
REMARK  224  A    between atoms: _553  and  _555
REMARK  225  A    between atoms: _555  and  _556
REMARK  226  A    between atoms: _555  and  _558
REMARK  227  A    between atoms: _558  and  _559
REMARK  228  A    between atoms: _559  and  _560
REMARK  229  A    between atoms: _563  and  _564
REMARK  230  A    between atoms: _569  and  _571
REMARK  231  A    between atoms: _571  and  _572
REMARK  232  A    between atoms: _571  and  _574
REMARK  233  A    between atoms: _574  and  _575
REMARK  234  A    between atoms: _575  and  _576
REMARK  235  A    between atoms: _578  and  _580
REMARK  236  A    between atoms: _580  and  _581
REMARK  237  A    between atoms: _583  and  _585
REMARK  238  A    between atoms: _585  and  _586
REMARK  239  A    between atoms: _585  and  _588
REMARK  240  A    between atoms: _591  and  _593
REMARK  241  A    between atoms: _593  and  _594
REMARK  242  A    between atoms: _593  and  _596
REMARK  243  A    between atoms: _596  and  _597
REMARK  244  A    between atoms: _607  and  _609
REMARK  245  A    between atoms: _609  and  _610
REMARK  246  A    between atoms: _609  and  _612
REMARK  247  A    between atoms: _612  and  _613
REMARK  248  A    between atoms: _613  and  _614
REMARK  249  A    between atoms: _618  and  _619
REMARK  250  A    between atoms: _624  and  _626
REMARK  251  A    between atoms: _626  and  _627
REMARK  252  A    between atoms: _626  and  _629
REMARK  253  A    between atoms: _629  and  _630
REMARK  254  A    between atoms: _633  and  _635
REMARK  255  A    between atoms: _635  and  _636
REMARK  256  A    between atoms: _635  and  _638
REMARK  257  A    between atoms: _638  and  _639
REMARK  258  A    between atoms: _644  and  _646
REMARK  259  A    between atoms: _646  and  _647
REMARK  260  A    between atoms: _646  and  _649
REMARK  261  A    between atoms: _649  and  _650
REMARK                            x       y       z     vdW  Elec       q    Type
REMARK                         _______ _______ _______ _____ _____    ______ ____
ROOT
ATOM      1  O   HOH     1      14.473  -4.635  13.802  0.00  0.00    +0.000 OA
ENDROOT
TORSDOF 0
REMARK  Name = ../refined-set-2016/2zym/2zym_pocket.pdb
REMARK  261 active torsions:
REMARK  status: ('A' for Active; 'I' for Inactive)
REMARK    1  A    between atoms: _1  and  _3
REMARK    2  A    between atoms: _3  and  _4
REMARK    3  A    between atoms: _3  and  _6
REMARK    4  A    between atoms: _6  and  _7
REMARK    5  A    between atoms: _7  and  _8
REMARK    6  A    between atoms: _11  and  _13
REMARK    7  A    between atoms: _13  and  _14
REMARK    8  A    between atoms: _13  and  _16
REMARK    9  A    between atoms: _16  and  _17
REMARK   10  A    between atoms: _22  and  _24
REMARK   11  A    between atoms: _24  and  _25
REMARK   12  A    between atoms: _28  and  _30
REMARK   13  A    between atoms: _30  and  _31
REMARK   14  A    between atoms: _30  and  _33
REMARK   15  A    between atoms: _33  and  _34
REMARK   16  A    between atoms: _37  and  _39
REMARK   17  A    between atoms: _39  and  _40
REMARK   18  A    between atoms: _39  and  _42
REMARK   19  A    between atoms: _42  and  _43
REMARK   20  A    between atoms: _43  and  _44
REMARK   21  A    between atoms: _49  and  _51
REMARK   22  A    between atoms: _51  and  _52
REMARK   23  A    between atoms: _51  and  _54
REMARK   24  A    between atoms: _57  and  _59
REMARK   25  A    between atoms: _59  and  _60
REMARK   26  A    between atoms: _63  and  _65
REMARK   27  A    between atoms: _65  and  _66
REMARK   28  A    between atoms: _65  and  _68
REMARK   29  A    between atoms: _68  and  _69
REMARK   30  A    between atoms: _72  and  _74
REMARK   31  A    between atoms: _74  and  _75
REMARK   32  A    between atoms: _74  and  _77
REMARK   33  A    between atoms: _77  and  _78
REMARK   34  A    between atoms: _81  and  _83
REMARK   35  A    between atoms: _83  and  _84
REMARK   36  A    between atoms: _83  and  _86
REMARK   37  A    between atoms: _86  and  _87
REMARK   38  A    between atoms: _87  and  _88
REMARK   39  A    between atoms: _88  and  _89
REMARK   40  A    between atoms: _89  and  _90
REMARK   41  A    between atoms: _94  and  _96
REMARK   42  A    between atoms: _96  and  _97
REMARK   43  A    between atoms: _96  and  _99
REMARK   44  A    between atoms: _99  and  _100
REMARK   45  A    between atoms: _100  and  _101
REMARK   46  A    between atoms: _106  and  _108
REMARK   47  A    between atoms: _108  and  _109
REMARK   48  A    between atoms: _108  and  _111
REMARK   49  A    between atoms: _111  and  _112
REMARK   50  A    between atoms: _112  and  _113
REMARK   51  A    between atoms: _118  and  _120
REMARK   52  A    between atoms: _120  and  _121
REMARK   53  A    between atoms: _120  and  _123
REMARK   54  A    between atoms: _123  and  _124
REMARK   55  A    between atoms: _124  and  _125
REMARK   56  A    between atoms: _128  and  _130
REMARK   57  A    between atoms: _130  and  _131
REMARK   58  A    between atoms: _130  and  _133
REMARK   59  A    between atoms: _133  and  _134
REMARK   60  A    between atoms: _134  and  _135
REMARK   61  A    between atoms: _135  and  _136
REMARK   62  A    between atoms: _136  and  _137
REMARK   63  A    between atoms: _141  and  _143
REMARK   64  A    between atoms: _143  and  _144
REMARK   65  A    between atoms: _143  and  _146
REMARK   66  A    between atoms: _146  and  _147
REMARK   67  A    between atoms: _150  and  _152
REMARK   68  A    between atoms: _152  and  _153
REMARK   69  A    between atoms: _152  and  _155
REMARK   70  A    between atoms: _155  and  _156
REMARK   71  A    between atoms: _167  and  _168
REMARK   72  A    between atoms: _173  and  _175
REMARK   73  A    between atoms: _175  and  _176
REMARK   74  A    between atoms: _175  and  _178
REMARK   75  A    between atoms: _178  and  _179
REMARK   76  A    between atoms: _184  and  _186
REMARK   77  A    between atoms: _186  and  _187
REMARK   78  A    between atoms: _186  and  _189
REMARK   79  A    between atoms: _189  and  _190
REMARK   80  A    between atoms: _193  and  _195
REMARK   81  A    between atoms: _195  and  _196
REMARK   82  A    between atoms: _195  and  _198
REMARK   83  A    between atoms: _198  and  _199
REMARK   84  A    between atoms: _199  and  _200
REMARK   85  A    between atoms: _200  and  _201
REMARK   86  A    between atoms: _210  and  _212
REMARK   87  A    between atoms: _212  and  _213
REMARK   88  A    between atoms: _212  and  _215
REMARK   89  A    between atoms: _215  and  _216
REMARK   90  A    between atoms: _219  and  _221
REMARK   91  A    between atoms: _221  and  _222
REMARK   92  A    between atoms: _221  and  _224
REMARK   93  A    between atoms: _224  and  _225
REMARK   94  A    between atoms: _225  and  _226
REMARK   95  A    between atoms: _229  and  _231
REMARK   96  A    between atoms: _231  and  _232
REMARK   97  A    between atoms: _231  and  _234
REMARK   98  A    between atoms: _234  and  _235
REMARK   99  A    between atoms: _235  and  _236
REMARK  100  A    between atoms: _236  and  _237
REMARK  101  A    between atoms: _237  and  _238
REMARK  102  A    between atoms: _242  and  _244
REMARK  103  A    between atoms: _244  and  _245
REMARK  104  A    between atoms: _248  and  _250
REMARK  105  A    between atoms: _250  and  _251
REMARK  106  A    between atoms: _250  and  _253
REMARK  107  A    between atoms: _253  and  _254
REMARK  108  A    between atoms: _254  and  _255
REMARK  109  A    between atoms: _258  and  _260
REMARK  110  A    between atoms: _260  and  _261
REMARK  111  A    between atoms: _260  and  _263
REMARK  112  A    between atoms: _263  and  _264
REMARK  113  A    between atoms: _266  and  _268
REMARK  114  A    between atoms: _268  and  _269
REMARK  115  A    between atoms: _268  and  _271
REMARK  116  A    between atoms: _274  and  _276
REMARK  117  A    between atoms: _276  and  _277
REMARK  118  A    between atoms: _276  and  _279
REMARK  119  A    between atoms: _279  and  _280
REMARK  120  A    between atoms: _280  and  _281
REMARK  121  A    between atoms: _284  and  _286
REMARK  122  A    between atoms: _286  and  _287
REMARK  123  A    between atoms: _286  and  _289
REMARK  124  A    between atoms: _289  and  _290
REMARK  125  A    between atoms: _295  and  _297
REMARK  126  A    between atoms: _297  and  _298
REMARK  127  A    between atoms: _297  and  _300
REMARK  128  A    between atoms: _300  and  _301
REMARK  129  A    between atoms: _306  and  _308
REMARK  130  A    between atoms: _308  and  _309
REMARK  131  A    between atoms: _308  and  _311
REMARK  132  A    between atoms: _311  and  _312
REMARK  133  A    between atoms: _318  and  _320
REMARK  134  A    between atoms: _320  and  _321
REMARK  135  A    between atoms: _320  and  _323
REMARK  136  A    between atoms: _323  and  _324
REMARK  137  A    between atoms: _329  and  _330
REMARK  138  A    between atoms: _332  and  _334
REMARK  139  A    between atoms: _334  and  _335
REMARK  140  A    between atoms: _334  and  _337
REMARK  141  A    between atoms: _337  and  _338
REMARK  142  A    between atoms: _343  and  _344
REMARK  143  A    between atoms: _346  and  _348
REMARK  144  A    between atoms: _348  and  _349
REMARK  145  A    between atoms: _348  and  _351
REMARK  146  A    between atoms: _351  and  _352
REMARK  147  A    between atoms: _355  and  _357
REMARK  148  A    between atoms: _357  and  _358
REMARK  149  A    between atoms: _357  and  _360
REMARK  150  A    between atoms: _360  and  _361
REMARK  151  A    between atoms: _364  and  _366
REMARK  152  A    between atoms: _366  and  _367
REMARK  153  A    between atoms: _366  and  _369
REMARK  154  A    between atoms: _369  and  _370
REMARK  155  A    between atoms: _370  and  _371
REMARK  156  A    between atoms: _371  and  _372
REMARK  157  A    between atoms: _372  and  _373
REMARK  158  A    between atoms: _377  and  _379
REMARK  159  A    between atoms: _379  and  _380
REMARK  160  A    between atoms: _383  and  _385
REMARK  161  A    between atoms: _385  and  _386
REMARK  162  A    between atoms: _385  and  _388
REMARK  163  A    between atoms: _388  and  _389
REMARK  164  A    between atoms: _392  and  _394
REMARK  165  A    between atoms: _394  and  _395
REMARK  166  A    between atoms: _394  and  _397
REMARK  167  A    between atoms: _397  and  _398
REMARK  168  A    between atoms: _401  and  _403
REMARK  169  A    between atoms: _403  and  _404
REMARK  170  A    between atoms: _403  and  _406
REMARK  171  A    between atoms: _409  and  _411
REMARK  172  A    between atoms: _411  and  _412
REMARK  173  A    between atoms: _411  and  _414
REMARK  174  A    between atoms: _414  and  _415
REMARK  175  A    between atoms: _420  and  _422
REMARK  176  A    between atoms: _422  and  _423
REMARK  177  A    between atoms: _422  and  _425
REMARK  178  A    between atoms: _425  and  _426
REMARK  179  A    between atoms: _431  and  _433
REMARK  180  A    between atoms: _433  and  _434
REMARK  181  A    between atoms: _437  and  _438
REMARK  182  A    between atoms: _443  and  _445
REMARK  183  A    between atoms: _445  and  _446
REMARK  184  A    between atoms: _445  and  _448
REMARK  185  A    between atoms: _448  and  _449
REMARK  186  A    between atoms: _459  and  _461
REMARK  187  A    between atoms: _461  and  _462
REMARK  188  A    between atoms: _465  and  _467
REMARK  189  A    between atoms: _467  and  _468
REMARK  190  A    between atoms: _467  and  _470
REMARK  191  A    between atoms: _470  and  _471
REMARK  192  A    between atoms: _476  and  _477
REMARK  193  A    between atoms: _479  and  _481
REMARK  194  A    between atoms: _481  and  _482
REMARK  195  A    between atoms: _481  and  _484
REMARK  196  A    between atoms: _484  and  _485
REMARK  197  A    between atoms: _491  and  _493
REMARK  198  A    between atoms: _493  and  _494
REMARK  199  A    between atoms: _493  and  _496
REMARK  200  A    between atoms: _496  and  _497
REMARK  201  A    between atoms: _500  and  _502
REMARK  202  A    between atoms: _502  and  _503
REMARK  203  A    between atoms: _505  and  _507
REMARK  204  A    between atoms: _507  and  _508
REMARK  205  A    between atoms: _507  and  _510
REMARK  206  A    between atoms: _513  and  _515
REMARK  207  A    between atoms: _515  and  _516
REMARK  208  A    between atoms: _515  and  _518
REMARK  209  A    between atoms: _518  and  _519
REMARK  210  A    between atoms: _519  and  _520
REMARK  211  A    between atoms: _520  and  _521
REMARK  212  A    between atoms: _521  and  _522
REMARK  213  A    between atoms: _526  and  _528
REMARK  214  A    between atoms: _528  and  _529
REMARK  215  A    between atoms: _528  and  _531
REMARK  216  A    between atoms: _531  and  _532
REMARK  217  A    between atoms: _532  and  _533
REMARK  218  A    between atoms: _533  and  _534
REMARK  219  A    between atoms: _543  and  _545
REMARK  220  A    between atoms: _545  and  _546
REMARK  221  A    between atoms: _545  and  _548
REMARK  222  A    between atoms: _548  and  _549
REMARK  223  A    between atoms: _549  and  _550
REMARK  224  A    between atoms: _553  and  _555
REMARK  225  A    between atoms: _555  and  _556
REMARK  226  A    between atoms: _555  and  _558
REMARK  227  A    between atoms: _558  and  _559
REMARK  228  A    between atoms: _559  and  _560
REMARK  229  A    between atoms: _563  and  _564
REMARK  230  A    between atoms: _569  and  _571
REMARK  231  A    between atoms: _571  and  _572
REMARK  232  A    between atoms: _571  and  _574
REMARK  233  A    between atoms: _574  and  _575
REMARK  234  A    between atoms: _575  and  _576
REMARK  235  A    between atoms: _578  and  _580
REMARK  236  A    between atoms: _580  and  _581
REMARK  237  A    between atoms: _583  and  _585
REMARK  238  A    between atoms: _585  and  _586
REMARK  239  A    between atoms: _585  and  _588
REMARK  240  A    between atoms: _591  and  _593
REMARK  241  A    between atoms: _593  and  _594
REMARK  242  A    between atoms: _593  and  _596
REMARK  243  A    between atoms: _596  and  _597
REMARK  244  A    between atoms: _607  and  _609
REMARK  245  A    between atoms: _609  and  _610
REMARK  246  A    between atoms: _609  and  _612
REMARK  247  A    between atoms: _612  and  _613
REMARK  248  A    between atoms: _613  and  _614
REMARK  249  A    between atoms: _618  and  _619
REMARK  250  A    between atoms: _624  and  _626
REMARK  251  A    between atoms: _626  and  _627
REMARK  252  A    between atoms: _626  and  _629
REMARK  253  A    between atoms: _629  and  _630
REMARK  254  A    between atoms: _633  and  _635
REMARK  255  A    between atoms: _635  and  _636
REMARK  256  A    between atoms: _635  and  _638
REMARK  257  A    between atoms: _638  and  _639
REMARK  258  A    between atoms: _644  and  _646
REMARK  259  A    between atoms: _646  and  _647
REMARK  260  A    between atoms: _646  and  _649
REMARK  261  A    between atoms: _649  and  _650
REMARK                            x       y       z     vdW  Elec       q    Type
REMARK                         _______ _______ _______ _____ _____    ______ ____
ROOT
ATOM      1  O   HOH     1      26.648   8.893   8.599  0.00  0.00    +0.000 OA
ENDROOT
TORSDOF 0
REMARK  Name = ../refined-set-2016/2zym/2zym_pocket.pdb
REMARK  261 active torsions:
REMARK  status: ('A' for Active; 'I' for Inactive)
REMARK    1  A    between atoms: _1  and  _3
REMARK    2  A    between atoms: _3  and  _4
REMARK    3  A    between atoms: _3  and  _6
REMARK    4  A    between atoms: _6  and  _7
REMARK    5  A    between atoms: _7  and  _8
REMARK    6  A    between atoms: _11  and  _13
REMARK    7  A    between atoms: _13  and  _14
REMARK    8  A    between atoms: _13  and  _16
REMARK    9  A    between atoms: _16  and  _17
REMARK   10  A    between atoms: _22  and  _24
REMARK   11  A    between atoms: _24  and  _25
REMARK   12  A    between atoms: _28  and  _30
REMARK   13  A    between atoms: _30  and  _31
REMARK   14  A    between atoms: _30  and  _33
REMARK   15  A    between atoms: _33  and  _34
REMARK   16  A    between atoms: _37  and  _39
REMARK   17  A    between atoms: _39  and  _40
REMARK   18  A    between atoms: _39  and  _42
REMARK   19  A    between atoms: _42  and  _43
REMARK   20  A    between atoms: _43  and  _44
REMARK   21  A    between atoms: _49  and  _51
REMARK   22  A    between atoms: _51  and  _52
REMARK   23  A    between atoms: _51  and  _54
REMARK   24  A    between atoms: _57  and  _59
REMARK   25  A    between atoms: _59  and  _60
REMARK   26  A    between atoms: _63  and  _65
REMARK   27  A    between atoms: _65  and  _66
REMARK   28  A    between atoms: _65  and  _68
REMARK   29  A    between atoms: _68  and  _69
REMARK   30  A    between atoms: _72  and  _74
REMARK   31  A    between atoms: _74  and  _75
REMARK   32  A    between atoms: _74  and  _77
REMARK   33  A    between atoms: _77  and  _78
REMARK   34  A    between atoms: _81  and  _83
REMARK   35  A    between atoms: _83  and  _84
REMARK   36  A    between atoms: _83  and  _86
REMARK   37  A    between atoms: _86  and  _87
REMARK   38  A    between atoms: _87  and  _88
REMARK   39  A    between atoms: _88  and  _89
REMARK   40  A    between atoms: _89  and  _90
REMARK   41  A    between atoms: _94  and  _96
REMARK   42  A    between atoms: _96  and  _97
REMARK   43  A    between atoms: _96  and  _99
REMARK   44  A    between atoms: _99  and  _100
REMARK   45  A    between atoms: _100  and  _101
REMARK   46  A    between atoms: _106  and  _108
REMARK   47  A    between atoms: _108  and  _109
REMARK   48  A    between atoms: _108  and  _111
REMARK   49  A    between atoms: _111  and  _112
REMARK   50  A    between atoms: _112  and  _113
REMARK   51  A    between atoms: _118  and  _120
REMARK   52  A    between atoms: _120  and  _121
REMARK   53  A    between atoms: _120  and  _123
REMARK   54  A    between atoms: _123  and  _124
REMARK   55  A    between atoms: _124  and  _125
REMARK   56  A    between atoms: _128  and  _130
REMARK   57  A    between atoms: _130  and  _131
REMARK   58  A    between atoms: _130  and  _133
REMARK   59  A    between atoms: _133  and  _134
REMARK   60  A    between atoms: _134  and  _135
REMARK   61  A    between atoms: _135  and  _136
REMARK   62  A    between atoms: _136  and  _137
REMARK   63  A    between atoms: _141  and  _143
REMARK   64  A    between atoms: _143  and  _144
REMARK   65  A    between atoms: _143  and  _146
REMARK   66  A    between atoms: _146  and  _147
REMARK   67  A    between atoms: _150  and  _152
REMARK   68  A    between atoms: _152  and  _153
REMARK   69  A    between atoms: _152  and  _155
REMARK   70  A    between atoms: _155  and  _156
REMARK   71  A    between atoms: _167  and  _168
REMARK   72  A    between atoms: _173  and  _175
REMARK   73  A    between atoms: _175  and  _176
REMARK   74  A    between atoms: _175  and  _178
REMARK   75  A    between atoms: _178  and  _179
REMARK   76  A    between atoms: _184  and  _186
REMARK   77  A    between atoms: _186  and  _187
REMARK   78  A    between atoms: _186  and  _189
REMARK   79  A    between atoms: _189  and  _190
REMARK   80  A    between atoms: _193  and  _195
REMARK   81  A    between atoms: _195  and  _196
REMARK   82  A    between atoms: _195  and  _198
REMARK   83  A    between atoms: _198  and  _199
REMARK   84  A    between atoms: _199  and  _200
REMARK   85  A    between atoms: _200  and  _201
REMARK   86  A    between atoms: _210  and  _212
REMARK   87  A    between atoms: _212  and  _213
REMARK   88  A    between atoms: _212  and  _215
REMARK   89  A    between atoms: _215  and  _216
REMARK   90  A    between atoms: _219  and  _221
REMARK   91  A    between atoms: _221  and  _222
REMARK   92  A    between atoms: _221  and  _224
REMARK   93  A    between atoms: _224  and  _225
REMARK   94  A    between atoms: _225  and  _226
REMARK   95  A    between atoms: _229  and  _231
REMARK   96  A    between atoms: _231  and  _232
REMARK   97  A    between atoms: _231  and  _234
REMARK   98  A    between atoms: _234  and  _235
REMARK   99  A    between atoms: _235  and  _236
REMARK  100  A    between atoms: _236  and  _237
REMARK  101  A    between atoms: _237  and  _238
REMARK  102  A    between atoms: _242  and  _244
REMARK  103  A    between atoms: _244  and  _245
REMARK  104  A    between atoms: _248  and  _250
REMARK  105  A    between atoms: _250  and  _251
REMARK  106  A    between atoms: _250  and  _253
REMARK  107  A    between atoms: _253  and  _254
REMARK  108  A    between atoms: _254  and  _255
REMARK  109  A    between atoms: _258  and  _260
REMARK  110  A    between atoms: _260  and  _261
REMARK  111  A    between atoms: _260  and  _263
REMARK  112  A    between atoms: _263  and  _264
REMARK  113  A    between atoms: _266  and  _268
REMARK  114  A    between atoms: _268  and  _269
REMARK  115  A    between atoms: _268  and  _271
REMARK  116  A    between atoms: _274  and  _276
REMARK  117  A    between atoms: _276  and  _277
REMARK  118  A    between atoms: _276  and  _279
REMARK  119  A    between atoms: _279  and  _280
REMARK  120  A    between atoms: _280  and  _281
REMARK  121  A    between atoms: _284  and  _286
REMARK  122  A    between atoms: _286  and  _287
REMARK  123  A    between atoms: _286  and  _289
REMARK  124  A    between atoms: _289  and  _290
REMARK  125  A    between atoms: _295  and  _297
REMARK  126  A    between atoms: _297  and  _298
REMARK  127  A    between atoms: _297  and  _300
REMARK  128  A    between atoms: _300  and  _301
REMARK  129  A    between atoms: _306  and  _308
REMARK  130  A    between atoms: _308  and  _309
REMARK  131  A    between atoms: _308  and  _311
REMARK  132  A    between atoms: _311  and  _312
REMARK  133  A    between atoms: _318  and  _320
REMARK  134  A    between atoms: _320  and  _321
REMARK  135  A    between atoms: _320  and  _323
REMARK  136  A    between atoms: _323  and  _324
REMARK  137  A    between atoms: _329  and  _330
REMARK  138  A    between atoms: _332  and  _334
REMARK  139  A    between atoms: _334  and  _335
REMARK  140  A    between atoms: _334  and  _337
REMARK  141  A    between atoms: _337  and  _338
REMARK  142  A    between atoms: _343  and  _344
REMARK  143  A    between atoms: _346  and  _348
REMARK  144  A    between atoms: _348  and  _349
REMARK  145  A    between atoms: _348  and  _351
REMARK  146  A    between atoms: _351  and  _352
REMARK  147  A    between atoms: _355  and  _357
REMARK  148  A    between atoms: _357  and  _358
REMARK  149  A    between atoms: _357  and  _360
REMARK  150  A    between atoms: _360  and  _361
REMARK  151  A    between atoms: _364  and  _366
REMARK  152  A    between atoms: _366  and  _367
REMARK  153  A    between atoms: _366  and  _369
REMARK  154  A    between atoms: _369  and  _370
REMARK  155  A    between atoms: _370  and  _371
REMARK  156  A    between atoms: _371  and  _372
REMARK  157  A    between atoms: _372  and  _373
REMARK  158  A    between atoms: _377  and  _379
REMARK  159  A    between atoms: _379  and  _380
REMARK  160  A    between atoms: _383  and  _385
REMARK  161  A    between atoms: _385  and  _386
REMARK  162  A    between atoms: _385  and  _388
REMARK  163  A    between atoms: _388  and  _389
REMARK  164  A    between atoms: _392  and  _394
REMARK  165  A    between atoms: _394  and  _395
REMARK  166  A    between atoms: _394  and  _397
REMARK  167  A    between atoms: _397  and  _398
REMARK  168  A    between atoms: _401  and  _403
REMARK  169  A    between atoms: _403  and  _404
REMARK  170  A    between atoms: _403  and  _406
REMARK  171  A    between atoms: _409  and  _411
REMARK  172  A    between atoms: _411  and  _412
REMARK  173  A    between atoms: _411  and  _414
REMARK  174  A    between atoms: _414  and  _415
REMARK  175  A    between atoms: _420  and  _422
REMARK  176  A    between atoms: _422  and  _423
REMARK  177  A    between atoms: _422  and  _425
REMARK  178  A    between atoms: _425  and  _426
REMARK  179  A    between atoms: _431  and  _433
REMARK  180  A    between atoms: _433  and  _434
REMARK  181  A    between atoms: _437  and  _438
REMARK  182  A    between atoms: _443  and  _445
REMARK  183  A    between atoms: _445  and  _446
REMARK  184  A    between atoms: _445  and  _448
REMARK  185  A    between atoms: _448  and  _449
REMARK  186  A    between atoms: _459  and  _461
REMARK  187  A    between atoms: _461  and  _462
REMARK  188  A    between atoms: _465  and  _467
REMARK  189  A    between atoms: _467  and  _468
REMARK  190  A    between atoms: _467  and  _470
REMARK  191  A    between atoms: _470  and  _471
REMARK  192  A    between atoms: _476  and  _477
REMARK  193  A    between atoms: _479  and  _481
REMARK  194  A    between atoms: _481  and  _482
REMARK  195  A    between atoms: _481  and  _484
REMARK  196  A    between atoms: _484  and  _485
REMARK  197  A    between atoms: _491  and  _493
REMARK  198  A    between atoms: _493  and  _494
REMARK  199  A    between atoms: _493  and  _496
REMARK  200  A    between atoms: _496  and  _497
REMARK  201  A    between atoms: _500  and  _502
REMARK  202  A    between atoms: _502  and  _503
REMARK  203  A    between atoms: _505  and  _507
REMARK  204  A    between atoms: _507  and  _508
REMARK  205  A    between atoms: _507  and  _510
REMARK  206  A    between atoms: _513  and  _515
REMARK  207  A    between atoms: _515  and  _516
REMARK  208  A    between atoms: _515  and  _518
REMARK  209  A    between atoms: _518  and  _519
REMARK  210  A    between atoms: _519  and  _520
REMARK  211  A    between atoms: _520  and  _521
REMARK  212  A    between atoms: _521  and  _522
REMARK  213  A    between atoms: _526  and  _528
REMARK  214  A    between atoms: _528  and  _529
REMARK  215  A    between atoms: _528  and  _531
REMARK  216  A    between atoms: _531  and  _532
REMARK  217  A    between atoms: _532  and  _533
REMARK  218  A    between atoms: _533  and  _534
REMARK  219  A    between atoms: _543  and  _545
REMARK  220  A    between atoms: _545  and  _546
REMARK  221  A    between atoms: _545  and  _548
REMARK  222  A    between atoms: _548  and  _549
REMARK  223  A    between atoms: _549  and  _550
REMARK  224  A    between atoms: _553  and  _555
REMARK  225  A    between atoms: _555  and  _556
REMARK  226  A    between atoms: _555  and  _558
REMARK  227  A    between atoms: _558  and  _559
REMARK  228  A    between atoms: _559  and  _560
REMARK  229  A    between atoms: _563  and  _564
REMARK  230  A    between atoms: _569  and  _571
REMARK  231  A    between atoms: _571  and  _572
REMARK  232  A    between atoms: _571  and  _574
REMARK  233  A    between atoms: _574  and  _575
REMARK  234  A    between atoms: _575  and  _576
REMARK  235  A    between atoms: _578  and  _580
REMARK  236  A    between atoms: _580  and  _581
REMARK  237  A    between atoms: _583  and  _585
REMARK  238  A    between atoms: _585  and  _586
REMARK  239  A    between atoms: _585  and  _588
REMARK  240  A    between atoms: _591  and  _593
REMARK  241  A    between atoms: _593  and  _594
REMARK  242  A    between atoms: _593  and  _596
REMARK  243  A    between atoms: _596  and  _597
REMARK  244  A    between atoms: _607  and  _609
REMARK  245  A    between atoms: _609  and  _610
REMARK  246  A    between atoms: _609  and  _612
REMARK  247  A    between atoms: _612  and  _613
REMARK  248  A    between atoms: _613  and  _614
REMARK  249  A    between atoms: _618  and  _619
REMARK  250  A    between atoms: _624  and  _626
REMARK  251  A    between atoms: _626  and  _627
REMARK  252  A    between atoms: _626  and  _629
REMARK  253  A    between atoms: _629  and  _630
REMARK  254  A    between atoms: _633  and  _635
REMARK  255  A    between atoms: _635  and  _636
REMARK  256  A    between atoms: _635  and  _638
REMARK  257  A    between atoms: _638  and  _639
REMARK  258  A    between atoms: _644  and  _646
REMARK  259  A    between atoms: _646  and  _647
REMARK  260  A    between atoms: _646  and  _649
REMARK  261  A    between atoms: _649  and  _650
REMARK                            x       y       z     vdW  Elec       q    Type
REMARK                         _______ _______ _______ _____ _____    ______ ____
ROOT
ATOM      1  O   HOH     1      12.172   0.038  22.963  0.00  0.00    +0.000 OA
ENDROOT
TORSDOF 0
REMARK  Name = ../refined-set-2016/2zym/2zym_pocket.pdb
REMARK  261 active torsions:
REMARK  status: ('A' for Active; 'I' for Inactive)
REMARK    1  A    between atoms: _1  and  _3
REMARK    2  A    between atoms: _3  and  _4
REMARK    3  A    between atoms: _3  and  _6
REMARK    4  A    between atoms: _6  and  _7
REMARK    5  A    between atoms: _7  and  _8
REMARK    6  A    between atoms: _11  and  _13
REMARK    7  A    between atoms: _13  and  _14
REMARK    8  A    between atoms: _13  and  _16
REMARK    9  A    between atoms: _16  and  _17
REMARK   10  A    between atoms: _22  and  _24
REMARK   11  A    between atoms: _24  and  _25
REMARK   12  A    between atoms: _28  and  _30
REMARK   13  A    between atoms: _30  and  _31
REMARK   14  A    between atoms: _30  and  _33
REMARK   15  A    between atoms: _33  and  _34
REMARK   16  A    between atoms: _37  and  _39
REMARK   17  A    between atoms: _39  and  _40
REMARK   18  A    between atoms: _39  and  _42
REMARK   19  A    between atoms: _42  and  _43
REMARK   20  A    between atoms: _43  and  _44
REMARK   21  A    between atoms: _49  and  _51
REMARK   22  A    between atoms: _51  and  _52
REMARK   23  A    between atoms: _51  and  _54
REMARK   24  A    between atoms: _57  and  _59
REMARK   25  A    between atoms: _59  and  _60
REMARK   26  A    between atoms: _63  and  _65
REMARK   27  A    between atoms: _65  and  _66
REMARK   28  A    between atoms: _65  and  _68
REMARK   29  A    between atoms: _68  and  _69
REMARK   30  A    between atoms: _72  and  _74
REMARK   31  A    between atoms: _74  and  _75
REMARK   32  A    between atoms: _74  and  _77
REMARK   33  A    between atoms: _77  and  _78
REMARK   34  A    between atoms: _81  and  _83
REMARK   35  A    between atoms: _83  and  _84
REMARK   36  A    between atoms: _83  and  _86
REMARK   37  A    between atoms: _86  and  _87
REMARK   38  A    between atoms: _87  and  _88
REMARK   39  A    between atoms: _88  and  _89
REMARK   40  A    between atoms: _89  and  _90
REMARK   41  A    between atoms: _94  and  _96
REMARK   42  A    between atoms: _96  and  _97
REMARK   43  A    between atoms: _96  and  _99
REMARK   44  A    between atoms: _99  and  _100
REMARK   45  A    between atoms: _100  and  _101
REMARK   46  A    between atoms: _106  and  _108
REMARK   47  A    between atoms: _108  and  _109
REMARK   48  A    between atoms: _108  and  _111
REMARK   49  A    between atoms: _111  and  _112
REMARK   50  A    between atoms: _112  and  _113
REMARK   51  A    between atoms: _118  and  _120
REMARK   52  A    between atoms: _120  and  _121
REMARK   53  A    between atoms: _120  and  _123
REMARK   54  A    between atoms: _123  and  _124
REMARK   55  A    between atoms: _124  and  _125
REMARK   56  A    between atoms: _128  and  _130
REMARK   57  A    between atoms: _130  and  _131
REMARK   58  A    between atoms: _130  and  _133
REMARK   59  A    between atoms: _133  and  _134
REMARK   60  A    between atoms: _134  and  _135
REMARK   61  A    between atoms: _135  and  _136
REMARK   62  A    between atoms: _136  and  _137
REMARK   63  A    between atoms: _141  and  _143
REMARK   64  A    between atoms: _143  and  _144
REMARK   65  A    between atoms: _143  and  _146
REMARK   66  A    between atoms: _146  and  _147
REMARK   67  A    between atoms: _150  and  _152
REMARK   68  A    between atoms: _152  and  _153
REMARK   69  A    between atoms: _152  and  _155
REMARK   70  A    between atoms: _155  and  _156
REMARK   71  A    between atoms: _167  and  _168
REMARK   72  A    between atoms: _173  and  _175
REMARK   73  A    between atoms: _175  and  _176
REMARK   74  A    between atoms: _175  and  _178
REMARK   75  A    between atoms: _178  and  _179
REMARK   76  A    between atoms: _184  and  _186
REMARK   77  A    between atoms: _186  and  _187
REMARK   78  A    between atoms: _186  and  _189
REMARK   79  A    between atoms: _189  and  _190
REMARK   80  A    between atoms: _193  and  _195
REMARK   81  A    between atoms: _195  and  _196
REMARK   82  A    between atoms: _195  and  _198
REMARK   83  A    between atoms: _198  and  _199
REMARK   84  A    between atoms: _199  and  _200
REMARK   85  A    between atoms: _200  and  _201
REMARK   86  A    between atoms: _210  and  _212
REMARK   87  A    between atoms: _212  and  _213
REMARK   88  A    between atoms: _212  and  _215
REMARK   89  A    between atoms: _215  and  _216
REMARK   90  A    between atoms: _219  and  _221
REMARK   91  A    between atoms: _221  and  _222
REMARK   92  A    between atoms: _221  and  _224
REMARK   93  A    between atoms: _224  and  _225
REMARK   94  A    between atoms: _225  and  _226
REMARK   95  A    between atoms: _229  and  _231
REMARK   96  A    between atoms: _231  and  _232
REMARK   97  A    between atoms: _231  and  _234
REMARK   98  A    between atoms: _234  and  _235
REMARK   99  A    between atoms: _235  and  _236
REMARK  100  A    between atoms: _236  and  _237
REMARK  101  A    between atoms: _237  and  _238
REMARK  102  A    between atoms: _242  and  _244
REMARK  103  A    between atoms: _244  and  _245
REMARK  104  A    between atoms: _248  and  _250
REMARK  105  A    between atoms: _250  and  _251
REMARK  106  A    between atoms: _250  and  _253
REMARK  107  A    between atoms: _253  and  _254
REMARK  108  A    between atoms: _254  and  _255
REMARK  109  A    between atoms: _258  and  _260
REMARK  110  A    between atoms: _260  and  _261
REMARK  111  A    between atoms: _260  and  _263
REMARK  112  A    between atoms: _263  and  _264
REMARK  113  A    between atoms: _266  and  _268
REMARK  114  A    between atoms: _268  and  _269
REMARK  115  A    between atoms: _268  and  _271
REMARK  116  A    between atoms: _274  and  _276
REMARK  117  A    between atoms: _276  and  _277
REMARK  118  A    between atoms: _276  and  _279
REMARK  119  A    between atoms: _279  and  _280
REMARK  120  A    between atoms: _280  and  _281
REMARK  121  A    between atoms: _284  and  _286
REMARK  122  A    between atoms: _286  and  _287
REMARK  123  A    between atoms: _286  and  _289
REMARK  124  A    between atoms: _289  and  _290
REMARK  125  A    between atoms: _295  and  _297
REMARK  126  A    between atoms: _297  and  _298
REMARK  127  A    between atoms: _297  and  _300
REMARK  128  A    between atoms: _300  and  _301
REMARK  129  A    between atoms: _306  and  _308
REMARK  130  A    between atoms: _308  and  _309
REMARK  131  A    between atoms: _308  and  _311
REMARK  132  A    between atoms: _311  and  _312
REMARK  133  A    between atoms: _318  and  _320
REMARK  134  A    between atoms: _320  and  _321
REMARK  135  A    between atoms: _320  and  _323
REMARK  136  A    between atoms: _323  and  _324
REMARK  137  A    between atoms: _329  and  _330
REMARK  138  A    between atoms: _332  and  _334
REMARK  139  A    between atoms: _334  and  _335
REMARK  140  A    between atoms: _334  and  _337
REMARK  141  A    between atoms: _337  and  _338
REMARK  142  A    between atoms: _343  and  _344
REMARK  143  A    between atoms: _346  and  _348
REMARK  144  A    between atoms: _348  and  _349
REMARK  145  A    between atoms: _348  and  _351
REMARK  146  A    between atoms: _351  and  _352
REMARK  147  A    between atoms: _355  and  _357
REMARK  148  A    between atoms: _357  and  _358
REMARK  149  A    between atoms: _357  and  _360
REMARK  150  A    between atoms: _360  and  _361
REMARK  151  A    between atoms: _364  and  _366
REMARK  152  A    between atoms: _366  and  _367
REMARK  153  A    between atoms: _366  and  _369
REMARK  154  A    between atoms: _369  and  _370
REMARK  155  A    between atoms: _370  and  _371
REMARK  156  A    between atoms: _371  and  _372
REMARK  157  A    between atoms: _372  and  _373
REMARK  158  A    between atoms: _377  and  _379
REMARK  159  A    between atoms: _379  and  _380
REMARK  160  A    between atoms: _383  and  _385
REMARK  161  A    between atoms: _385  and  _386
REMARK  162  A    between atoms: _385  and  _388
REMARK  163  A    between atoms: _388  and  _389
REMARK  164  A    between atoms: _392  and  _394
REMARK  165  A    between atoms: _394  and  _395
REMARK  166  A    between atoms: _394  and  _397
REMARK  167  A    between atoms: _397  and  _398
REMARK  168  A    between atoms: _401  and  _403
REMARK  169  A    between atoms: _403  and  _404
REMARK  170  A    between atoms: _403  and  _406
REMARK  171  A    between atoms: _409  and  _411
REMARK  172  A    between atoms: _411  and  _412
REMARK  173  A    between atoms: _411  and  _414
REMARK  174  A    between atoms: _414  and  _415
REMARK  175  A    between atoms: _420  and  _422
REMARK  176  A    between atoms: _422  and  _423
REMARK  177  A    between atoms: _422  and  _425
REMARK  178  A    between atoms: _425  and  _426
REMARK  179  A    between atoms: _431  and  _433
REMARK  180  A    between atoms: _433  and  _434
REMARK  181  A    between atoms: _437  and  _438
REMARK  182  A    between atoms: _443  and  _445
REMARK  183  A    between atoms: _445  and  _446
REMARK  184  A    between atoms: _445  and  _448
REMARK  185  A    between atoms: _448  and  _449
REMARK  186  A    between atoms: _459  and  _461
REMARK  187  A    between atoms: _461  and  _462
REMARK  188  A    between atoms: _465  and  _467
REMARK  189  A    between atoms: _467  and  _468
REMARK  190  A    between atoms: _467  and  _470
REMARK  191  A    between atoms: _470  and  _471
REMARK  192  A    between atoms: _476  and  _477
REMARK  193  A    between atoms: _479  and  _481
REMARK  194  A    between atoms: _481  and  _482
REMARK  195  A    between atoms: _481  and  _484
REMARK  196  A    between atoms: _484  and  _485
REMARK  197  A    between atoms: _491  and  _493
REMARK  198  A    between atoms: _493  and  _494
REMARK  199  A    between atoms: _493  and  _496
REMARK  200  A    between atoms: _496  and  _497
REMARK  201  A    between atoms: _500  and  _502
REMARK  202  A    between atoms: _502  and  _503
REMARK  203  A    between atoms: _505  and  _507
REMARK  204  A    between atoms: _507  and  _508
REMARK  205  A    between atoms: _507  and  _510
REMARK  206  A    between atoms: _513  and  _515
REMARK  207  A    between atoms: _515  and  _516
REMARK  208  A    between atoms: _515  and  _518
REMARK  209  A    between atoms: _518  and  _519
REMARK  210  A    between atoms: _519  and  _520
REMARK  211  A    between atoms: _520  and  _521
REMARK  212  A    between atoms: _521  and  _522
REMARK  213  A    between atoms: _526  and  _528
REMARK  214  A    between atoms: _528  and  _529
REMARK  215  A    between atoms: _528  and  _531
REMARK  216  A    between atoms: _531  and  _532
REMARK  217  A    between atoms: _532  and  _533
REMARK  218  A    between atoms: _533  and  _534
REMARK  219  A    between atoms: _543  and  _545
REMARK  220  A    between atoms: _545  and  _546
REMARK  221  A    between atoms: _545  and  _548
REMARK  222  A    between atoms: _548  and  _549
REMARK  223  A    between atoms: _549  and  _550
REMARK  224  A    between atoms: _553  and  _555
REMARK  225  A    between atoms: _555  and  _556
REMARK  226  A    between atoms: _555  and  _558
REMARK  227  A    between atoms: _558  and  _559
REMARK  228  A    between atoms: _559  and  _560
REMARK  229  A    between atoms: _563  and  _564
REMARK  230  A    between atoms: _569  and  _571
REMARK  231  A    between atoms: _571  and  _572
REMARK  232  A    between atoms: _571  and  _574
REMARK  233  A    between atoms: _574  and  _575
REMARK  234  A    between atoms: _575  and  _576
REMARK  235  A    between atoms: _578  and  _580
REMARK  236  A    between atoms: _580  and  _581
REMARK  237  A    between atoms: _583  and  _585
REMARK  238  A    between atoms: _585  and  _586
REMARK  239  A    between atoms: _585  and  _588
REMARK  240  A    between atoms: _591  and  _593
REMARK  241  A    between atoms: _593  and  _594
REMARK  242  A    between atoms: _593  and  _596
REMARK  243  A    between atoms: _596  and  _597
REMARK  244  A    between atoms: _607  and  _609
REMARK  245  A    between atoms: _609  and  _610
REMARK  246  A    between atoms: _609  and  _612
REMARK  247  A    between atoms: _612  and  _613
REMARK  248  A    between atoms: _613  and  _614
REMARK  249  A    between atoms: _618  and  _619
REMARK  250  A    between atoms: _624  and  _626
REMARK  251  A    between atoms: _626  and  _627
REMARK  252  A    between atoms: _626  and  _629
REMARK  253  A    between atoms: _629  and  _630
REMARK  254  A    between atoms: _633  and  _635
REMARK  255  A    between atoms: _635  and  _636
REMARK  256  A    between atoms: _635  and  _638
REMARK  257  A    between atoms: _638  and  _639
REMARK  258  A    between atoms: _644  and  _646
REMARK  259  A    between atoms: _646  and  _647
REMARK  260  A    between atoms: _646  and  _649
REMARK  261  A    between atoms: _649  and  _650
REMARK                            x       y       z     vdW  Elec       q    Type
REMARK                         _______ _______ _______ _____ _____    ______ ____
ROOT
ATOM      1  O   HOH     1      12.021  -0.091  13.144  0.00  0.00    +0.000 OA
ENDROOT
TORSDOF 0
REMARK  Name = ../refined-set-2016/2zym/2zym_pocket.pdb
REMARK  261 active torsions:
REMARK  status: ('A' for Active; 'I' for Inactive)
REMARK    1  A    between atoms: _1  and  _3
REMARK    2  A    between atoms: _3  and  _4
REMARK    3  A    between atoms: _3  and  _6
REMARK    4  A    between atoms: _6  and  _7
REMARK    5  A    between atoms: _7  and  _8
REMARK    6  A    between atoms: _11  and  _13
REMARK    7  A    between atoms: _13  and  _14
REMARK    8  A    between atoms: _13  and  _16
REMARK    9  A    between atoms: _16  and  _17
REMARK   10  A    between atoms: _22  and  _24
REMARK   11  A    between atoms: _24  and  _25
REMARK   12  A    between atoms: _28  and  _30
REMARK   13  A    between atoms: _30  and  _31
REMARK   14  A    between atoms: _30  and  _33
REMARK   15  A    between atoms: _33  and  _34
REMARK   16  A    between atoms: _37  and  _39
REMARK   17  A    between atoms: _39  and  _40
REMARK   18  A    between atoms: _39  and  _42
REMARK   19  A    between atoms: _42  and  _43
REMARK   20  A    between atoms: _43  and  _44
REMARK   21  A    between atoms: _49  and  _51
REMARK   22  A    between atoms: _51  and  _52
REMARK   23  A    between atoms: _51  and  _54
REMARK   24  A    between atoms: _57  and  _59
REMARK   25  A    between atoms: _59  and  _60
REMARK   26  A    between atoms: _63  and  _65
REMARK   27  A    between atoms: _65  and  _66
REMARK   28  A    between atoms: _65  and  _68
REMARK   29  A    between atoms: _68  and  _69
REMARK   30  A    between atoms: _72  and  _74
REMARK   31  A    between atoms: _74  and  _75
REMARK   32  A    between atoms: _74  and  _77
REMARK   33  A    between atoms: _77  and  _78
REMARK   34  A    between atoms: _81  and  _83
REMARK   35  A    between atoms: _83  and  _84
REMARK   36  A    between atoms: _83  and  _86
REMARK   37  A    between atoms: _86  and  _87
REMARK   38  A    between atoms: _87  and  _88
REMARK   39  A    between atoms: _88  and  _89
REMARK   40  A    between atoms: _89  and  _90
REMARK   41  A    between atoms: _94  and  _96
REMARK   42  A    between atoms: _96  and  _97
REMARK   43  A    between atoms: _96  and  _99
REMARK   44  A    between atoms: _99  and  _100
REMARK   45  A    between atoms: _100  and  _101
REMARK   46  A    between atoms: _106  and  _108
REMARK   47  A    between atoms: _108  and  _109
REMARK   48  A    between atoms: _108  and  _111
REMARK   49  A    between atoms: _111  and  _112
REMARK   50  A    between atoms: _112  and  _113
REMARK   51  A    between atoms: _118  and  _120
REMARK   52  A    between atoms: _120  and  _121
REMARK   53  A    between atoms: _120  and  _123
REMARK   54  A    between atoms: _123  and  _124
REMARK   55  A    between atoms: _124  and  _125
REMARK   56  A    between atoms: _128  and  _130
REMARK   57  A    between atoms: _130  and  _131
REMARK   58  A    between atoms: _130  and  _133
REMARK   59  A    between atoms: _133  and  _134
REMARK   60  A    between atoms: _134  and  _135
REMARK   61  A    between atoms: _135  and  _136
REMARK   62  A    between atoms: _136  and  _137
REMARK   63  A    between atoms: _141  and  _143
REMARK   64  A    between atoms: _143  and  _144
REMARK   65  A    between atoms: _143  and  _146
REMARK   66  A    between atoms: _146  and  _147
REMARK   67  A    between atoms: _150  and  _152
REMARK   68  A    between atoms: _152  and  _153
REMARK   69  A    between atoms: _152  and  _155
REMARK   70  A    between atoms: _155  and  _156
REMARK   71  A    between atoms: _167  and  _168
REMARK   72  A    between atoms: _173  and  _175
REMARK   73  A    between atoms: _175  and  _176
REMARK   74  A    between atoms: _175  and  _178
REMARK   75  A    between atoms: _178  and  _179
REMARK   76  A    between atoms: _184  and  _186
REMARK   77  A    between atoms: _186  and  _187
REMARK   78  A    between atoms: _186  and  _189
REMARK   79  A    between atoms: _189  and  _190
REMARK   80  A    between atoms: _193  and  _195
REMARK   81  A    between atoms: _195  and  _196
REMARK   82  A    between atoms: _195  and  _198
REMARK   83  A    between atoms: _198  and  _199
REMARK   84  A    between atoms: _199  and  _200
REMARK   85  A    between atoms: _200  and  _201
REMARK   86  A    between atoms: _210  and  _212
REMARK   87  A    between atoms: _212  and  _213
REMARK   88  A    between atoms: _212  and  _215
REMARK   89  A    between atoms: _215  and  _216
REMARK   90  A    between atoms: _219  and  _221
REMARK   91  A    between atoms: _221  and  _222
REMARK   92  A    between atoms: _221  and  _224
REMARK   93  A    between atoms: _224  and  _225
REMARK   94  A    between atoms: _225  and  _226
REMARK   95  A    between atoms: _229  and  _231
REMARK   96  A    between atoms: _231  and  _232
REMARK   97  A    between atoms: _231  and  _234
REMARK   98  A    between atoms: _234  and  _235
REMARK   99  A    between atoms: _235  and  _236
REMARK  100  A    between atoms: _236  and  _237
REMARK  101  A    between atoms: _237  and  _238
REMARK  102  A    between atoms: _242  and  _244
REMARK  103  A    between atoms: _244  and  _245
REMARK  104  A    between atoms: _248  and  _250
REMARK  105  A    between atoms: _250  and  _251
REMARK  106  A    between atoms: _250  and  _253
REMARK  107  A    between atoms: _253  and  _254
REMARK  108  A    between atoms: _254  and  _255
REMARK  109  A    between atoms: _258  and  _260
REMARK  110  A    between atoms: _260  and  _261
REMARK  111  A    between atoms: _260  and  _263
REMARK  112  A    between atoms: _263  and  _264
REMARK  113  A    between atoms: _266  and  _268
REMARK  114  A    between atoms: _268  and  _269
REMARK  115  A    between atoms: _268  and  _271
REMARK  116  A    between atoms: _274  and  _276
REMARK  117  A    between atoms: _276  and  _277
REMARK  118  A    between atoms: _276  and  _279
REMARK  119  A    between atoms: _279  and  _280
REMARK  120  A    between atoms: _280  and  _281
REMARK  121  A    between atoms: _284  and  _286
REMARK  122  A    between atoms: _286  and  _287
REMARK  123  A    between atoms: _286  and  _289
REMARK  124  A    between atoms: _289  and  _290
REMARK  125  A    between atoms: _295  and  _297
REMARK  126  A    between atoms: _297  and  _298
REMARK  127  A    between atoms: _297  and  _300
REMARK  128  A    between atoms: _300  and  _301
REMARK  129  A    between atoms: _306  and  _308
REMARK  130  A    between atoms: _308  and  _309
REMARK  131  A    between atoms: _308  and  _311
REMARK  132  A    between atoms: _311  and  _312
REMARK  133  A    between atoms: _318  and  _320
REMARK  134  A    between atoms: _320  and  _321
REMARK  135  A    between atoms: _320  and  _323
REMARK  136  A    between atoms: _323  and  _324
REMARK  137  A    between atoms: _329  and  _330
REMARK  138  A    between atoms: _332  and  _334
REMARK  139  A    between atoms: _334  and  _335
REMARK  140  A    between atoms: _334  and  _337
REMARK  141  A    between atoms: _337  and  _338
REMARK  142  A    between atoms: _343  and  _344
REMARK  143  A    between atoms: _346  and  _348
REMARK  144  A    between atoms: _348  and  _349
REMARK  145  A    between atoms: _348  and  _351
REMARK  146  A    between atoms: _351  and  _352
REMARK  147  A    between atoms: _355  and  _357
REMARK  148  A    between atoms: _357  and  _358
REMARK  149  A    between atoms: _357  and  _360
REMARK  150  A    between atoms: _360  and  _361
REMARK  151  A    between atoms: _364  and  _366
REMARK  152  A    between atoms: _366  and  _367
REMARK  153  A    between atoms: _366  and  _369
REMARK  154  A    between atoms: _369  and  _370
REMARK  155  A    between atoms: _370  and  _371
REMARK  156  A    between atoms: _371  and  _372
REMARK  157  A    between atoms: _372  and  _373
REMARK  158  A    between atoms: _377  and  _379
REMARK  159  A    between atoms: _379  and  _380
REMARK  160  A    between atoms: _383  and  _385
REMARK  161  A    between atoms: _385  and  _386
REMARK  162  A    between atoms: _385  and  _388
REMARK  163  A    between atoms: _388  and  _389
REMARK  164  A    between atoms: _392  and  _394
REMARK  165  A    between atoms: _394  and  _395
REMARK  166  A    between atoms: _394  and  _397
REMARK  167  A    between atoms: _397  and  _398
REMARK  168  A    between atoms: _401  and  _403
REMARK  169  A    between atoms: _403  and  _404
REMARK  170  A    between atoms: _403  and  _406
REMARK  171  A    between atoms: _409  and  _411
REMARK  172  A    between atoms: _411  and  _412
REMARK  173  A    between atoms: _411  and  _414
REMARK  174  A    between atoms: _414  and  _415
REMARK  175  A    between atoms: _420  and  _422
REMARK  176  A    between atoms: _422  and  _423
REMARK  177  A    between atoms: _422  and  _425
REMARK  178  A    between atoms: _425  and  _426
REMARK  179  A    between atoms: _431  and  _433
REMARK  180  A    between atoms: _433  and  _434
REMARK  181  A    between atoms: _437  and  _438
REMARK  182  A    between atoms: _443  and  _445
REMARK  183  A    between atoms: _445  and  _446
REMARK  184  A    between atoms: _445  and  _448
REMARK  185  A    between atoms: _448  and  _449
REMARK  186  A    between atoms: _459  and  _461
REMARK  187  A    between atoms: _461  and  _462
REMARK  188  A    between atoms: _465  and  _467
REMARK  189  A    between atoms: _467  and  _468
REMARK  190  A    between atoms: _467  and  _470
REMARK  191  A    between atoms: _470  and  _471
REMARK  192  A    between atoms: _476  and  _477
REMARK  193  A    between atoms: _479  and  _481
REMARK  194  A    between atoms: _481  and  _482
REMARK  195  A    between atoms: _481  and  _484
REMARK  196  A    between atoms: _484  and  _485
REMARK  197  A    between atoms: _491  and  _493
REMARK  198  A    between atoms: _493  and  _494
REMARK  199  A    between atoms: _493  and  _496
REMARK  200  A    between atoms: _496  and  _497
REMARK  201  A    between atoms: _500  and  _502
REMARK  202  A    between atoms: _502  and  _503
REMARK  203  A    between atoms: _505  and  _507
REMARK  204  A    between atoms: _507  and  _508
REMARK  205  A    between atoms: _507  and  _510
REMARK  206  A    between atoms: _513  and  _515
REMARK  207  A    between atoms: _515  and  _516
REMARK  208  A    between atoms: _515  and  _518
REMARK  209  A    between atoms: _518  and  _519
REMARK  210  A    between atoms: _519  and  _520
REMARK  211  A    between atoms: _520  and  _521
REMARK  212  A    between atoms: _521  and  _522
REMARK  213  A    between atoms: _526  and  _528
REMARK  214  A    between atoms: _528  and  _529
REMARK  215  A    between atoms: _528  and  _531
REMARK  216  A    between atoms: _531  and  _532
REMARK  217  A    between atoms: _532  and  _533
REMARK  218  A    between atoms: _533  and  _534
REMARK  219  A    between atoms: _543  and  _545
REMARK  220  A    between atoms: _545  and  _546
REMARK  221  A    between atoms: _545  and  _548
REMARK  222  A    between atoms: _548  and  _549
REMARK  223  A    between atoms: _549  and  _550
REMARK  224  A    between atoms: _553  and  _555
REMARK  225  A    between atoms: _555  and  _556
REMARK  226  A    between atoms: _555  and  _558
REMARK  227  A    between atoms: _558  and  _559
REMARK  228  A    between atoms: _559  and  _560
REMARK  229  A    between atoms: _563  and  _564
REMARK  230  A    between atoms: _569  and  _571
REMARK  231  A    between atoms: _571  and  _572
REMARK  232  A    between atoms: _571  and  _574
REMARK  233  A    between atoms: _574  and  _575
REMARK  234  A    between atoms: _575  and  _576
REMARK  235  A    between atoms: _578  and  _580
REMARK  236  A    between atoms: _580  and  _581
REMARK  237  A    between atoms: _583  and  _585
REMARK  238  A    between atoms: _585  and  _586
REMARK  239  A    between atoms: _585  and  _588
REMARK  240  A    between atoms: _591  and  _593
REMARK  241  A    between atoms: _593  and  _594
REMARK  242  A    between atoms: _593  and  _596
REMARK  243  A    between atoms: _596  and  _597
REMARK  244  A    between atoms: _607  and  _609
REMARK  245  A    between atoms: _609  and  _610
REMARK  246  A    between atoms: _609  and  _612
REMARK  247  A    between atoms: _612  and  _613
REMARK  248  A    between atoms: _613  and  _614
REMARK  249  A    between atoms: _618  and  _619
REMARK  250  A    between atoms: _624  and  _626
REMARK  251  A    between atoms: _626  and  _627
REMARK  252  A    between atoms: _626  and  _629
REMARK  253  A    between atoms: _629  and  _630
REMARK  254  A    between atoms: _633  and  _635
REMARK  255  A    between atoms: _635  and  _636
REMARK  256  A    between atoms: _635  and  _638
REMARK  257  A    between atoms: _638  and  _639
REMARK  258  A    between atoms: _644  and  _646
REMARK  259  A    between atoms: _646  and  _647
REMARK  260  A    between atoms: _646  and  _649
REMARK  261  A    between atoms: _649  and  _650
REMARK                            x       y       z     vdW  Elec       q    Type
REMARK                         _______ _______ _______ _____ _____    ______ ____
ROOT
ATOM      1  O   HOH     1      11.464  13.681  16.244  0.00  0.00    +0.000 OA
ENDROOT
TORSDOF 0
REMARK  Name = ../refined-set-2016/2zym/2zym_pocket.pdb
REMARK  261 active torsions:
REMARK  status: ('A' for Active; 'I' for Inactive)
REMARK    1  A    between atoms: _1  and  _3
REMARK    2  A    between atoms: _3  and  _4
REMARK    3  A    between atoms: _3  and  _6
REMARK    4  A    between atoms: _6  and  _7
REMARK    5  A    between atoms: _7  and  _8
REMARK    6  A    between atoms: _11  and  _13
REMARK    7  A    between atoms: _13  and  _14
REMARK    8  A    between atoms: _13  and  _16
REMARK    9  A    between atoms: _16  and  _17
REMARK   10  A    between atoms: _22  and  _24
REMARK   11  A    between atoms: _24  and  _25
REMARK   12  A    between atoms: _28  and  _30
REMARK   13  A    between atoms: _30  and  _31
REMARK   14  A    between atoms: _30  and  _33
REMARK   15  A    between atoms: _33  and  _34
REMARK   16  A    between atoms: _37  and  _39
REMARK   17  A    between atoms: _39  and  _40
REMARK   18  A    between atoms: _39  and  _42
REMARK   19  A    between atoms: _42  and  _43
REMARK   20  A    between atoms: _43  and  _44
REMARK   21  A    between atoms: _49  and  _51
REMARK   22  A    between atoms: _51  and  _52
REMARK   23  A    between atoms: _51  and  _54
REMARK   24  A    between atoms: _57  and  _59
REMARK   25  A    between atoms: _59  and  _60
REMARK   26  A    between atoms: _63  and  _65
REMARK   27  A    between atoms: _65  and  _66
REMARK   28  A    between atoms: _65  and  _68
REMARK   29  A    between atoms: _68  and  _69
REMARK   30  A    between atoms: _72  and  _74
REMARK   31  A    between atoms: _74  and  _75
REMARK   32  A    between atoms: _74  and  _77
REMARK   33  A    between atoms: _77  and  _78
REMARK   34  A    between atoms: _81  and  _83
REMARK   35  A    between atoms: _83  and  _84
REMARK   36  A    between atoms: _83  and  _86
REMARK   37  A    between atoms: _86  and  _87
REMARK   38  A    between atoms: _87  and  _88
REMARK   39  A    between atoms: _88  and  _89
REMARK   40  A    between atoms: _89  and  _90
REMARK   41  A    between atoms: _94  and  _96
REMARK   42  A    between atoms: _96  and  _97
REMARK   43  A    between atoms: _96  and  _99
REMARK   44  A    between atoms: _99  and  _100
REMARK   45  A    between atoms: _100  and  _101
REMARK   46  A    between atoms: _106  and  _108
REMARK   47  A    between atoms: _108  and  _109
REMARK   48  A    between atoms: _108  and  _111
REMARK   49  A    between atoms: _111  and  _112
REMARK   50  A    between atoms: _112  and  _113
REMARK   51  A    between atoms: _118  and  _120
REMARK   52  A    between atoms: _120  and  _121
REMARK   53  A    between atoms: _120  and  _123
REMARK   54  A    between atoms: _123  and  _124
REMARK   55  A    between atoms: _124  and  _125
REMARK   56  A    between atoms: _128  and  _130
REMARK   57  A    between atoms: _130  and  _131
REMARK   58  A    between atoms: _130  and  _133
REMARK   59  A    between atoms: _133  and  _134
REMARK   60  A    between atoms: _134  and  _135
REMARK   61  A    between atoms: _135  and  _136
REMARK   62  A    between atoms: _136  and  _137
REMARK   63  A    between atoms: _141  and  _143
REMARK   64  A    between atoms: _143  and  _144
REMARK   65  A    between atoms: _143  and  _146
REMARK   66  A    between atoms: _146  and  _147
REMARK   67  A    between atoms: _150  and  _152
REMARK   68  A    between atoms: _152  and  _153
REMARK   69  A    between atoms: _152  and  _155
REMARK   70  A    between atoms: _155  and  _156
REMARK   71  A    between atoms: _167  and  _168
REMARK   72  A    between atoms: _173  and  _175
REMARK   73  A    between atoms: _175  and  _176
REMARK   74  A    between atoms: _175  and  _178
REMARK   75  A    between atoms: _178  and  _179
REMARK   76  A    between atoms: _184  and  _186
REMARK   77  A    between atoms: _186  and  _187
REMARK   78  A    between atoms: _186  and  _189
REMARK   79  A    between atoms: _189  and  _190
REMARK   80  A    between atoms: _193  and  _195
REMARK   81  A    between atoms: _195  and  _196
REMARK   82  A    between atoms: _195  and  _198
REMARK   83  A    between atoms: _198  and  _199
REMARK   84  A    between atoms: _199  and  _200
REMARK   85  A    between atoms: _200  and  _201
REMARK   86  A    between atoms: _210  and  _212
REMARK   87  A    between atoms: _212  and  _213
REMARK   88  A    between atoms: _212  and  _215
REMARK   89  A    between atoms: _215  and  _216
REMARK   90  A    between atoms: _219  and  _221
REMARK   91  A    between atoms: _221  and  _222
REMARK   92  A    between atoms: _221  and  _224
REMARK   93  A    between atoms: _224  and  _225
REMARK   94  A    between atoms: _225  and  _226
REMARK   95  A    between atoms: _229  and  _231
REMARK   96  A    between atoms: _231  and  _232
REMARK   97  A    between atoms: _231  and  _234
REMARK   98  A    between atoms: _234  and  _235
REMARK   99  A    between atoms: _235  and  _236
REMARK  100  A    between atoms: _236  and  _237
REMARK  101  A    between atoms: _237  and  _238
REMARK  102  A    between atoms: _242  and  _244
REMARK  103  A    between atoms: _244  and  _245
REMARK  104  A    between atoms: _248  and  _250
REMARK  105  A    between atoms: _250  and  _251
REMARK  106  A    between atoms: _250  and  _253
REMARK  107  A    between atoms: _253  and  _254
REMARK  108  A    between atoms: _254  and  _255
REMARK  109  A    between atoms: _258  and  _260
REMARK  110  A    between atoms: _260  and  _261
REMARK  111  A    between atoms: _260  and  _263
REMARK  112  A    between atoms: _263  and  _264
REMARK  113  A    between atoms: _266  and  _268
REMARK  114  A    between atoms: _268  and  _269
REMARK  115  A    between atoms: _268  and  _271
REMARK  116  A    between atoms: _274  and  _276
REMARK  117  A    between atoms: _276  and  _277
REMARK  118  A    between atoms: _276  and  _279
REMARK  119  A    between atoms: _279  and  _280
REMARK  120  A    between atoms: _280  and  _281
REMARK  121  A    between atoms: _284  and  _286
REMARK  122  A    between atoms: _286  and  _287
REMARK  123  A    between atoms: _286  and  _289
REMARK  124  A    between atoms: _289  and  _290
REMARK  125  A    between atoms: _295  and  _297
REMARK  126  A    between atoms: _297  and  _298
REMARK  127  A    between atoms: _297  and  _300
REMARK  128  A    between atoms: _300  and  _301
REMARK  129  A    between atoms: _306  and  _308
REMARK  130  A    between atoms: _308  and  _309
REMARK  131  A    between atoms: _308  and  _311
REMARK  132  A    between atoms: _311  and  _312
REMARK  133  A    between atoms: _318  and  _320
REMARK  134  A    between atoms: _320  and  _321
REMARK  135  A    between atoms: _320  and  _323
REMARK  136  A    between atoms: _323  and  _324
REMARK  137  A    between atoms: _329  and  _330
REMARK  138  A    between atoms: _332  and  _334
REMARK  139  A    between atoms: _334  and  _335
REMARK  140  A    between atoms: _334  and  _337
REMARK  141  A    between atoms: _337  and  _338
REMARK  142  A    between atoms: _343  and  _344
REMARK  143  A    between atoms: _346  and  _348
REMARK  144  A    between atoms: _348  and  _349
REMARK  145  A    between atoms: _348  and  _351
REMARK  146  A    between atoms: _351  and  _352
REMARK  147  A    between atoms: _355  and  _357
REMARK  148  A    between atoms: _357  and  _358
REMARK  149  A    between atoms: _357  and  _360
REMARK  150  A    between atoms: _360  and  _361
REMARK  151  A    between atoms: _364  and  _366
REMARK  152  A    between atoms: _366  and  _367
REMARK  153  A    between atoms: _366  and  _369
REMARK  154  A    between atoms: _369  and  _370
REMARK  155  A    between atoms: _370  and  _371
REMARK  156  A    between atoms: _371  and  _372
REMARK  157  A    between atoms: _372  and  _373
REMARK  158  A    between atoms: _377  and  _379
REMARK  159  A    between atoms: _379  and  _380
REMARK  160  A    between atoms: _383  and  _385
REMARK  161  A    between atoms: _385  and  _386
REMARK  162  A    between atoms: _385  and  _388
REMARK  163  A    between atoms: _388  and  _389
REMARK  164  A    between atoms: _392  and  _394
REMARK  165  A    between atoms: _394  and  _395
REMARK  166  A    between atoms: _394  and  _397
REMARK  167  A    between atoms: _397  and  _398
REMARK  168  A    between atoms: _401  and  _403
REMARK  169  A    between atoms: _403  and  _404
REMARK  170  A    between atoms: _403  and  _406
REMARK  171  A    between atoms: _409  and  _411
REMARK  172  A    between atoms: _411  and  _412
REMARK  173  A    between atoms: _411  and  _414
REMARK  174  A    between atoms: _414  and  _415
REMARK  175  A    between atoms: _420  and  _422
REMARK  176  A    between atoms: _422  and  _423
REMARK  177  A    between atoms: _422  and  _425
REMARK  178  A    between atoms: _425  and  _426
REMARK  179  A    between atoms: _431  and  _433
REMARK  180  A    between atoms: _433  and  _434
REMARK  181  A    between atoms: _437  and  _438
REMARK  182  A    between atoms: _443  and  _445
REMARK  183  A    between atoms: _445  and  _446
REMARK  184  A    between atoms: _445  and  _448
REMARK  185  A    between atoms: _448  and  _449
REMARK  186  A    between atoms: _459  and  _461
REMARK  187  A    between atoms: _461  and  _462
REMARK  188  A    between atoms: _465  and  _467
REMARK  189  A    between atoms: _467  and  _468
REMARK  190  A    between atoms: _467  and  _470
REMARK  191  A    between atoms: _470  and  _471
REMARK  192  A    between atoms: _476  and  _477
REMARK  193  A    between atoms: _479  and  _481
REMARK  194  A    between atoms: _481  and  _482
REMARK  195  A    between atoms: _481  and  _484
REMARK  196  A    between atoms: _484  and  _485
REMARK  197  A    between atoms: _491  and  _493
REMARK  198  A    between atoms: _493  and  _494
REMARK  199  A    between atoms: _493  and  _496
REMARK  200  A    between atoms: _496  and  _497
REMARK  201  A    between atoms: _500  and  _502
REMARK  202  A    between atoms: _502  and  _503
REMARK  203  A    between atoms: _505  and  _507
REMARK  204  A    between atoms: _507  and  _508
REMARK  205  A    between atoms: _507  and  _510
REMARK  206  A    between atoms: _513  and  _515
REMARK  207  A    between atoms: _515  and  _516
REMARK  208  A    between atoms: _515  and  _518
REMARK  209  A    between atoms: _518  and  _519
REMARK  210  A    between atoms: _519  and  _520
REMARK  211  A    between atoms: _520  and  _521
REMARK  212  A    between atoms: _521  and  _522
REMARK  213  A    between atoms: _526  and  _528
REMARK  214  A    between atoms: _528  and  _529
REMARK  215  A    between atoms: _528  and  _531
REMARK  216  A    between atoms: _531  and  _532
REMARK  217  A    between atoms: _532  and  _533
REMARK  218  A    between atoms: _533  and  _534
REMARK  219  A    between atoms: _543  and  _545
REMARK  220  A    between atoms: _545  and  _546
REMARK  221  A    between atoms: _545  and  _548
REMARK  222  A    between atoms: _548  and  _549
REMARK  223  A    between atoms: _549  and  _550
REMARK  224  A    between atoms: _553  and  _555
REMARK  225  A    between atoms: _555  and  _556
REMARK  226  A    between atoms: _555  and  _558
REMARK  227  A    between atoms: _558  and  _559
REMARK  228  A    between atoms: _559  and  _560
REMARK  229  A    between atoms: _563  and  _564
REMARK  230  A    between atoms: _569  and  _571
REMARK  231  A    between atoms: _571  and  _572
REMARK  232  A    between atoms: _571  and  _574
REMARK  233  A    between atoms: _574  and  _575
REMARK  234  A    between atoms: _575  and  _576
REMARK  235  A    between atoms: _578  and  _580
REMARK  236  A    between atoms: _580  and  _581
REMARK  237  A    between atoms: _583  and  _585
REMARK  238  A    between atoms: _585  and  _586
REMARK  239  A    between atoms: _585  and  _588
REMARK  240  A    between atoms: _591  and  _593
REMARK  241  A    between atoms: _593  and  _594
REMARK  242  A    between atoms: _593  and  _596
REMARK  243  A    between atoms: _596  and  _597
REMARK  244  A    between atoms: _607  and  _609
REMARK  245  A    between atoms: _609  and  _610
REMARK  246  A    between atoms: _609  and  _612
REMARK  247  A    between atoms: _612  and  _613
REMARK  248  A    between atoms: _613  and  _614
REMARK  249  A    between atoms: _618  and  _619
REMARK  250  A    between atoms: _624  and  _626
REMARK  251  A    between atoms: _626  and  _627
REMARK  252  A    between atoms: _626  and  _629
REMARK  253  A    between atoms: _629  and  _630
REMARK  254  A    between atoms: _633  and  _635
REMARK  255  A    between atoms: _635  and  _636
REMARK  256  A    between atoms: _635  and  _638
REMARK  257  A    between atoms: _638  and  _639
REMARK  258  A    between atoms: _644  and  _646
REMARK  259  A    between atoms: _646  and  _647
REMARK  260  A    between atoms: _646  and  _649
REMARK  261  A    between atoms: _649  and  _650
REMARK                            x       y       z     vdW  Elec       q    Type
REMARK                         _______ _______ _______ _____ _____    ______ ____
ROOT
ATOM      1  O   HOH     1      21.925   4.126   8.351  0.00  0.00    +0.000 OA
ENDROOT
TORSDOF 0
REMARK  Name = ../refined-set-2016/2zym/2zym_pocket.pdb
REMARK  261 active torsions:
REMARK  status: ('A' for Active; 'I' for Inactive)
REMARK    1  A    between atoms: _1  and  _3
REMARK    2  A    between atoms: _3  and  _4
REMARK    3  A    between atoms: _3  and  _6
REMARK    4  A    between atoms: _6  and  _7
REMARK    5  A    between atoms: _7  and  _8
REMARK    6  A    between atoms: _11  and  _13
REMARK    7  A    between atoms: _13  and  _14
REMARK    8  A    between atoms: _13  and  _16
REMARK    9  A    between atoms: _16  and  _17
REMARK   10  A    between atoms: _22  and  _24
REMARK   11  A    between atoms: _24  and  _25
REMARK   12  A    between atoms: _28  and  _30
REMARK   13  A    between atoms: _30  and  _31
REMARK   14  A    between atoms: _30  and  _33
REMARK   15  A    between atoms: _33  and  _34
REMARK   16  A    between atoms: _37  and  _39
REMARK   17  A    between atoms: _39  and  _40
REMARK   18  A    between atoms: _39  and  _42
REMARK   19  A    between atoms: _42  and  _43
REMARK   20  A    between atoms: _43  and  _44
REMARK   21  A    between atoms: _49  and  _51
REMARK   22  A    between atoms: _51  and  _52
REMARK   23  A    between atoms: _51  and  _54
REMARK   24  A    between atoms: _57  and  _59
REMARK   25  A    between atoms: _59  and  _60
REMARK   26  A    between atoms: _63  and  _65
REMARK   27  A    between atoms: _65  and  _66
REMARK   28  A    between atoms: _65  and  _68
REMARK   29  A    between atoms: _68  and  _69
REMARK   30  A    between atoms: _72  and  _74
REMARK   31  A    between atoms: _74  and  _75
REMARK   32  A    between atoms: _74  and  _77
REMARK   33  A    between atoms: _77  and  _78
REMARK   34  A    between atoms: _81  and  _83
REMARK   35  A    between atoms: _83  and  _84
REMARK   36  A    between atoms: _83  and  _86
REMARK   37  A    between atoms: _86  and  _87
REMARK   38  A    between atoms: _87  and  _88
REMARK   39  A    between atoms: _88  and  _89
REMARK   40  A    between atoms: _89  and  _90
REMARK   41  A    between atoms: _94  and  _96
REMARK   42  A    between atoms: _96  and  _97
REMARK   43  A    between atoms: _96  and  _99
REMARK   44  A    between atoms: _99  and  _100
REMARK   45  A    between atoms: _100  and  _101
REMARK   46  A    between atoms: _106  and  _108
REMARK   47  A    between atoms: _108  and  _109
REMARK   48  A    between atoms: _108  and  _111
REMARK   49  A    between atoms: _111  and  _112
REMARK   50  A    between atoms: _112  and  _113
REMARK   51  A    between atoms: _118  and  _120
REMARK   52  A    between atoms: _120  and  _121
REMARK   53  A    between atoms: _120  and  _123
REMARK   54  A    between atoms: _123  and  _124
REMARK   55  A    between atoms: _124  and  _125
REMARK   56  A    between atoms: _128  and  _130
REMARK   57  A    between atoms: _130  and  _131
REMARK   58  A    between atoms: _130  and  _133
REMARK   59  A    between atoms: _133  and  _134
REMARK   60  A    between atoms: _134  and  _135
REMARK   61  A    between atoms: _135  and  _136
REMARK   62  A    between atoms: _136  and  _137
REMARK   63  A    between atoms: _141  and  _143
REMARK   64  A    between atoms: _143  and  _144
REMARK   65  A    between atoms: _143  and  _146
REMARK   66  A    between atoms: _146  and  _147
REMARK   67  A    between atoms: _150  and  _152
REMARK   68  A    between atoms: _152  and  _153
REMARK   69  A    between atoms: _152  and  _155
REMARK   70  A    between atoms: _155  and  _156
REMARK   71  A    between atoms: _167  and  _168
REMARK   72  A    between atoms: _173  and  _175
REMARK   73  A    between atoms: _175  and  _176
REMARK   74  A    between atoms: _175  and  _178
REMARK   75  A    between atoms: _178  and  _179
REMARK   76  A    between atoms: _184  and  _186
REMARK   77  A    between atoms: _186  and  _187
REMARK   78  A    between atoms: _186  and  _189
REMARK   79  A    between atoms: _189  and  _190
REMARK   80  A    between atoms: _193  and  _195
REMARK   81  A    between atoms: _195  and  _196
REMARK   82  A    between atoms: _195  and  _198
REMARK   83  A    between atoms: _198  and  _199
REMARK   84  A    between atoms: _199  and  _200
REMARK   85  A    between atoms: _200  and  _201
REMARK   86  A    between atoms: _210  and  _212
REMARK   87  A    between atoms: _212  and  _213
REMARK   88  A    between atoms: _212  and  _215
REMARK   89  A    between atoms: _215  and  _216
REMARK   90  A    between atoms: _219  and  _221
REMARK   91  A    between atoms: _221  and  _222
REMARK   92  A    between atoms: _221  and  _224
REMARK   93  A    between atoms: _224  and  _225
REMARK   94  A    between atoms: _225  and  _226
REMARK   95  A    between atoms: _229  and  _231
REMARK   96  A    between atoms: _231  and  _232
REMARK   97  A    between atoms: _231  and  _234
REMARK   98  A    between atoms: _234  and  _235
REMARK   99  A    between atoms: _235  and  _236
REMARK  100  A    between atoms: _236  and  _237
REMARK  101  A    between atoms: _237  and  _238
REMARK  102  A    between atoms: _242  and  _244
REMARK  103  A    between atoms: _244  and  _245
REMARK  104  A    between atoms: _248  and  _250
REMARK  105  A    between atoms: _250  and  _251
REMARK  106  A    between atoms: _250  and  _253
REMARK  107  A    between atoms: _253  and  _254
REMARK  108  A    between atoms: _254  and  _255
REMARK  109  A    between atoms: _258  and  _260
REMARK  110  A    between atoms: _260  and  _261
REMARK  111  A    between atoms: _260  and  _263
REMARK  112  A    between atoms: _263  and  _264
REMARK  113  A    between atoms: _266  and  _268
REMARK  114  A    between atoms: _268  and  _269
REMARK  115  A    between atoms: _268  and  _271
REMARK  116  A    between atoms: _274  and  _276
REMARK  117  A    between atoms: _276  and  _277
REMARK  118  A    between atoms: _276  and  _279
REMARK  119  A    between atoms: _279  and  _280
REMARK  120  A    between atoms: _280  and  _281
REMARK  121  A    between atoms: _284  and  _286
REMARK  122  A    between atoms: _286  and  _287
REMARK  123  A    between atoms: _286  and  _289
REMARK  124  A    between atoms: _289  and  _290
REMARK  125  A    between atoms: _295  and  _297
REMARK  126  A    between atoms: _297  and  _298
REMARK  127  A    between atoms: _297  and  _300
REMARK  128  A    between atoms: _300  and  _301
REMARK  129  A    between atoms: _306  and  _308
REMARK  130  A    between atoms: _308  and  _309
REMARK  131  A    between atoms: _308  and  _311
REMARK  132  A    between atoms: _311  and  _312
REMARK  133  A    between atoms: _318  and  _320
REMARK  134  A    between atoms: _320  and  _321
REMARK  135  A    between atoms: _320  and  _323
REMARK  136  A    between atoms: _323  and  _324
REMARK  137  A    between atoms: _329  and  _330
REMARK  138  A    between atoms: _332  and  _334
REMARK  139  A    between atoms: _334  and  _335
REMARK  140  A    between atoms: _334  and  _337
REMARK  141  A    between atoms: _337  and  _338
REMARK  142  A    between atoms: _343  and  _344
REMARK  143  A    between atoms: _346  and  _348
REMARK  144  A    between atoms: _348  and  _349
REMARK  145  A    between atoms: _348  and  _351
REMARK  146  A    between atoms: _351  and  _352
REMARK  147  A    between atoms: _355  and  _357
REMARK  148  A    between atoms: _357  and  _358
REMARK  149  A    between atoms: _357  and  _360
REMARK  150  A    between atoms: _360  and  _361
REMARK  151  A    between atoms: _364  and  _366
REMARK  152  A    between atoms: _366  and  _367
REMARK  153  A    between atoms: _366  and  _369
REMARK  154  A    between atoms: _369  and  _370
REMARK  155  A    between atoms: _370  and  _371
REMARK  156  A    between atoms: _371  and  _372
REMARK  157  A    between atoms: _372  and  _373
REMARK  158  A    between atoms: _377  and  _379
REMARK  159  A    between atoms: _379  and  _380
REMARK  160  A    between atoms: _383  and  _385
REMARK  161  A    between atoms: _385  and  _386
REMARK  162  A    between atoms: _385  and  _388
REMARK  163  A    between atoms: _388  and  _389
REMARK  164  A    between atoms: _392  and  _394
REMARK  165  A    between atoms: _394  and  _395
REMARK  166  A    between atoms: _394  and  _397
REMARK  167  A    between atoms: _397  and  _398
REMARK  168  A    between atoms: _401  and  _403
REMARK  169  A    between atoms: _403  and  _404
REMARK  170  A    between atoms: _403  and  _406
REMARK  171  A    between atoms: _409  and  _411
REMARK  172  A    between atoms: _411  and  _412
REMARK  173  A    between atoms: _411  and  _414
REMARK  174  A    between atoms: _414  and  _415
REMARK  175  A    between atoms: _420  and  _422
REMARK  176  A    between atoms: _422  and  _423
REMARK  177  A    between atoms: _422  and  _425
REMARK  178  A    between atoms: _425  and  _426
REMARK  179  A    between atoms: _431  and  _433
REMARK  180  A    between atoms: _433  and  _434
REMARK  181  A    between atoms: _437  and  _438
REMARK  182  A    between atoms: _443  and  _445
REMARK  183  A    between atoms: _445  and  _446
REMARK  184  A    between atoms: _445  and  _448
REMARK  185  A    between atoms: _448  and  _449
REMARK  186  A    between atoms: _459  and  _461
REMARK  187  A    between atoms: _461  and  _462
REMARK  188  A    between atoms: _465  and  _467
REMARK  189  A    between atoms: _467  and  _468
REMARK  190  A    between atoms: _467  and  _470
REMARK  191  A    between atoms: _470  and  _471
REMARK  192  A    between atoms: _476  and  _477
REMARK  193  A    between atoms: _479  and  _481
REMARK  194  A    between atoms: _481  and  _482
REMARK  195  A    between atoms: _481  and  _484
REMARK  196  A    between atoms: _484  and  _485
REMARK  197  A    between atoms: _491  and  _493
REMARK  198  A    between atoms: _493  and  _494
REMARK  199  A    between atoms: _493  and  _496
REMARK  200  A    between atoms: _496  and  _497
REMARK  201  A    between atoms: _500  and  _502
REMARK  202  A    between atoms: _502  and  _503
REMARK  203  A    between atoms: _505  and  _507
REMARK  204  A    between atoms: _507  and  _508
REMARK  205  A    between atoms: _507  and  _510
REMARK  206  A    between atoms: _513  and  _515
REMARK  207  A    between atoms: _515  and  _516
REMARK  208  A    between atoms: _515  and  _518
REMARK  209  A    between atoms: _518  and  _519
REMARK  210  A    between atoms: _519  and  _520
REMARK  211  A    between atoms: _520  and  _521
REMARK  212  A    between atoms: _521  and  _522
REMARK  213  A    between atoms: _526  and  _528
REMARK  214  A    between atoms: _528  and  _529
REMARK  215  A    between atoms: _528  and  _531
REMARK  216  A    between atoms: _531  and  _532
REMARK  217  A    between atoms: _532  and  _533
REMARK  218  A    between atoms: _533  and  _534
REMARK  219  A    between atoms: _543  and  _545
REMARK  220  A    between atoms: _545  and  _546
REMARK  221  A    between atoms: _545  and  _548
REMARK  222  A    between atoms: _548  and  _549
REMARK  223  A    between atoms: _549  and  _550
REMARK  224  A    between atoms: _553  and  _555
REMARK  225  A    between atoms: _555  and  _556
REMARK  226  A    between atoms: _555  and  _558
REMARK  227  A    between atoms: _558  and  _559
REMARK  228  A    between atoms: _559  and  _560
REMARK  229  A    between atoms: _563  and  _564
REMARK  230  A    between atoms: _569  and  _571
REMARK  231  A    between atoms: _571  and  _572
REMARK  232  A    between atoms: _571  and  _574
REMARK  233  A    between atoms: _574  and  _575
REMARK  234  A    between atoms: _575  and  _576
REMARK  235  A    between atoms: _578  and  _580
REMARK  236  A    between atoms: _580  and  _581
REMARK  237  A    between atoms: _583  and  _585
REMARK  238  A    between atoms: _585  and  _586
REMARK  239  A    between atoms: _585  and  _588
REMARK  240  A    between atoms: _591  and  _593
REMARK  241  A    between atoms: _593  and  _594
REMARK  242  A    between atoms: _593  and  _596
REMARK  243  A    between atoms: _596  and  _597
REMARK  244  A    between atoms: _607  and  _609
REMARK  245  A    between atoms: _609  and  _610
REMARK  246  A    between atoms: _609  and  _612
REMARK  247  A    between atoms: _612  and  _613
REMARK  248  A    between atoms: _613  and  _614
REMARK  249  A    between atoms: _618  and  _619
REMARK  250  A    between atoms: _624  and  _626
REMARK  251  A    between atoms: _626  and  _627
REMARK  252  A    between atoms: _626  and  _629
REMARK  253  A    between atoms: _629  and  _630
REMARK  254  A    between atoms: _633  and  _635
REMARK  255  A    between atoms: _635  and  _636
REMARK  256  A    between atoms: _635  and  _638
REMARK  257  A    between atoms: _638  and  _639
REMARK  258  A    between atoms: _644  and  _646
REMARK  259  A    between atoms: _646  and  _647
REMARK  260  A    between atoms: _646  and  _649
REMARK  261  A    between atoms: _649  and  _650
REMARK                            x       y       z     vdW  Elec       q    Type
REMARK                         _______ _______ _______ _____ _____    ______ ____
ROOT
ATOM      1  O   HOH     1      23.914  15.294  18.476  0.00  0.00    +0.000 OA
ENDROOT
TORSDOF 0
REMARK  Name = ../refined-set-2016/2zym/2zym_pocket.pdb
REMARK  261 active torsions:
REMARK  status: ('A' for Active; 'I' for Inactive)
REMARK    1  A    between atoms: _1  and  _3
REMARK    2  A    between atoms: _3  and  _4
REMARK    3  A    between atoms: _3  and  _6
REMARK    4  A    between atoms: _6  and  _7
REMARK    5  A    between atoms: _7  and  _8
REMARK    6  A    between atoms: _11  and  _13
REMARK    7  A    between atoms: _13  and  _14
REMARK    8  A    between atoms: _13  and  _16
REMARK    9  A    between atoms: _16  and  _17
REMARK   10  A    between atoms: _22  and  _24
REMARK   11  A    between atoms: _24  and  _25
REMARK   12  A    between atoms: _28  and  _30
REMARK   13  A    between atoms: _30  and  _31
REMARK   14  A    between atoms: _30  and  _33
REMARK   15  A    between atoms: _33  and  _34
REMARK   16  A    between atoms: _37  and  _39
REMARK   17  A    between atoms: _39  and  _40
REMARK   18  A    between atoms: _39  and  _42
REMARK   19  A    between atoms: _42  and  _43
REMARK   20  A    between atoms: _43  and  _44
REMARK   21  A    between atoms: _49  and  _51
REMARK   22  A    between atoms: _51  and  _52
REMARK   23  A    between atoms: _51  and  _54
REMARK   24  A    between atoms: _57  and  _59
REMARK   25  A    between atoms: _59  and  _60
REMARK   26  A    between atoms: _63  and  _65
REMARK   27  A    between atoms: _65  and  _66
REMARK   28  A    between atoms: _65  and  _68
REMARK   29  A    between atoms: _68  and  _69
REMARK   30  A    between atoms: _72  and  _74
REMARK   31  A    between atoms: _74  and  _75
REMARK   32  A    between atoms: _74  and  _77
REMARK   33  A    between atoms: _77  and  _78
REMARK   34  A    between atoms: _81  and  _83
REMARK   35  A    between atoms: _83  and  _84
REMARK   36  A    between atoms: _83  and  _86
REMARK   37  A    between atoms: _86  and  _87
REMARK   38  A    between atoms: _87  and  _88
REMARK   39  A    between atoms: _88  and  _89
REMARK   40  A    between atoms: _89  and  _90
REMARK   41  A    between atoms: _94  and  _96
REMARK   42  A    between atoms: _96  and  _97
REMARK   43  A    between atoms: _96  and  _99
REMARK   44  A    between atoms: _99  and  _100
REMARK   45  A    between atoms: _100  and  _101
REMARK   46  A    between atoms: _106  and  _108
REMARK   47  A    between atoms: _108  and  _109
REMARK   48  A    between atoms: _108  and  _111
REMARK   49  A    between atoms: _111  and  _112
REMARK   50  A    between atoms: _112  and  _113
REMARK   51  A    between atoms: _118  and  _120
REMARK   52  A    between atoms: _120  and  _121
REMARK   53  A    between atoms: _120  and  _123
REMARK   54  A    between atoms: _123  and  _124
REMARK   55  A    between atoms: _124  and  _125
REMARK   56  A    between atoms: _128  and  _130
REMARK   57  A    between atoms: _130  and  _131
REMARK   58  A    between atoms: _130  and  _133
REMARK   59  A    between atoms: _133  and  _134
REMARK   60  A    between atoms: _134  and  _135
REMARK   61  A    between atoms: _135  and  _136
REMARK   62  A    between atoms: _136  and  _137
REMARK   63  A    between atoms: _141  and  _143
REMARK   64  A    between atoms: _143  and  _144
REMARK   65  A    between atoms: _143  and  _146
REMARK   66  A    between atoms: _146  and  _147
REMARK   67  A    between atoms: _150  and  _152
REMARK   68  A    between atoms: _152  and  _153
REMARK   69  A    between atoms: _152  and  _155
REMARK   70  A    between atoms: _155  and  _156
REMARK   71  A    between atoms: _167  and  _168
REMARK   72  A    between atoms: _173  and  _175
REMARK   73  A    between atoms: _175  and  _176
REMARK   74  A    between atoms: _175  and  _178
REMARK   75  A    between atoms: _178  and  _179
REMARK   76  A    between atoms: _184  and  _186
REMARK   77  A    between atoms: _186  and  _187
REMARK   78  A    between atoms: _186  and  _189
REMARK   79  A    between atoms: _189  and  _190
REMARK   80  A    between atoms: _193  and  _195
REMARK   81  A    between atoms: _195  and  _196
REMARK   82  A    between atoms: _195  and  _198
REMARK   83  A    between atoms: _198  and  _199
REMARK   84  A    between atoms: _199  and  _200
REMARK   85  A    between atoms: _200  and  _201
REMARK   86  A    between atoms: _210  and  _212
REMARK   87  A    between atoms: _212  and  _213
REMARK   88  A    between atoms: _212  and  _215
REMARK   89  A    between atoms: _215  and  _216
REMARK   90  A    between atoms: _219  and  _221
REMARK   91  A    between atoms: _221  and  _222
REMARK   92  A    between atoms: _221  and  _224
REMARK   93  A    between atoms: _224  and  _225
REMARK   94  A    between atoms: _225  and  _226
REMARK   95  A    between atoms: _229  and  _231
REMARK   96  A    between atoms: _231  and  _232
REMARK   97  A    between atoms: _231  and  _234
REMARK   98  A    between atoms: _234  and  _235
REMARK   99  A    between atoms: _235  and  _236
REMARK  100  A    between atoms: _236  and  _237
REMARK  101  A    between atoms: _237  and  _238
REMARK  102  A    between atoms: _242  and  _244
REMARK  103  A    between atoms: _244  and  _245
REMARK  104  A    between atoms: _248  and  _250
REMARK  105  A    between atoms: _250  and  _251
REMARK  106  A    between atoms: _250  and  _253
REMARK  107  A    between atoms: _253  and  _254
REMARK  108  A    between atoms: _254  and  _255
REMARK  109  A    between atoms: _258  and  _260
REMARK  110  A    between atoms: _260  and  _261
REMARK  111  A    between atoms: _260  and  _263
REMARK  112  A    between atoms: _263  and  _264
REMARK  113  A    between atoms: _266  and  _268
REMARK  114  A    between atoms: _268  and  _269
REMARK  115  A    between atoms: _268  and  _271
REMARK  116  A    between atoms: _274  and  _276
REMARK  117  A    between atoms: _276  and  _277
REMARK  118  A    between atoms: _276  and  _279
REMARK  119  A    between atoms: _279  and  _280
REMARK  120  A    between atoms: _280  and  _281
REMARK  121  A    between atoms: _284  and  _286
REMARK  122  A    between atoms: _286  and  _287
REMARK  123  A    between atoms: _286  and  _289
REMARK  124  A    between atoms: _289  and  _290
REMARK  125  A    between atoms: _295  and  _297
REMARK  126  A    between atoms: _297  and  _298
REMARK  127  A    between atoms: _297  and  _300
REMARK  128  A    between atoms: _300  and  _301
REMARK  129  A    between atoms: _306  and  _308
REMARK  130  A    between atoms: _308  and  _309
REMARK  131  A    between atoms: _308  and  _311
REMARK  132  A    between atoms: _311  and  _312
REMARK  133  A    between atoms: _318  and  _320
REMARK  134  A    between atoms: _320  and  _321
REMARK  135  A    between atoms: _320  and  _323
REMARK  136  A    between atoms: _323  and  _324
REMARK  137  A    between atoms: _329  and  _330
REMARK  138  A    between atoms: _332  and  _334
REMARK  139  A    between atoms: _334  and  _335
REMARK  140  A    between atoms: _334  and  _337
REMARK  141  A    between atoms: _337  and  _338
REMARK  142  A    between atoms: _343  and  _344
REMARK  143  A    between atoms: _346  and  _348
REMARK  144  A    between atoms: _348  and  _349
REMARK  145  A    between atoms: _348  and  _351
REMARK  146  A    between atoms: _351  and  _352
REMARK  147  A    between atoms: _355  and  _357
REMARK  148  A    between atoms: _357  and  _358
REMARK  149  A    between atoms: _357  and  _360
REMARK  150  A    between atoms: _360  and  _361
REMARK  151  A    between atoms: _364  and  _366
REMARK  152  A    between atoms: _366  and  _367
REMARK  153  A    between atoms: _366  and  _369
REMARK  154  A    between atoms: _369  and  _370
REMARK  155  A    between atoms: _370  and  _371
REMARK  156  A    between atoms: _371  and  _372
REMARK  157  A    between atoms: _372  and  _373
REMARK  158  A    between atoms: _377  and  _379
REMARK  159  A    between atoms: _379  and  _380
REMARK  160  A    between atoms: _383  and  _385
REMARK  161  A    between atoms: _385  and  _386
REMARK  162  A    between atoms: _385  and  _388
REMARK  163  A    between atoms: _388  and  _389
REMARK  164  A    between atoms: _392  and  _394
REMARK  165  A    between atoms: _394  and  _395
REMARK  166  A    between atoms: _394  and  _397
REMARK  167  A    between atoms: _397  and  _398
REMARK  168  A    between atoms: _401  and  _403
REMARK  169  A    between atoms: _403  and  _404
REMARK  170  A    between atoms: _403  and  _406
REMARK  171  A    between atoms: _409  and  _411
REMARK  172  A    between atoms: _411  and  _412
REMARK  173  A    between atoms: _411  and  _414
REMARK  174  A    between atoms: _414  and  _415
REMARK  175  A    between atoms: _420  and  _422
REMARK  176  A    between atoms: _422  and  _423
REMARK  177  A    between atoms: _422  and  _425
REMARK  178  A    between atoms: _425  and  _426
REMARK  179  A    between atoms: _431  and  _433
REMARK  180  A    between atoms: _433  and  _434
REMARK  181  A    between atoms: _437  and  _438
REMARK  182  A    between atoms: _443  and  _445
REMARK  183  A    between atoms: _445  and  _446
REMARK  184  A    between atoms: _445  and  _448
REMARK  185  A    between atoms: _448  and  _449
REMARK  186  A    between atoms: _459  and  _461
REMARK  187  A    between atoms: _461  and  _462
REMARK  188  A    between atoms: _465  and  _467
REMARK  189  A    between atoms: _467  and  _468
REMARK  190  A    between atoms: _467  and  _470
REMARK  191  A    between atoms: _470  and  _471
REMARK  192  A    between atoms: _476  and  _477
REMARK  193  A    between atoms: _479  and  _481
REMARK  194  A    between atoms: _481  and  _482
REMARK  195  A    between atoms: _481  and  _484
REMARK  196  A    between atoms: _484  and  _485
REMARK  197  A    between atoms: _491  and  _493
REMARK  198  A    between atoms: _493  and  _494
REMARK  199  A    between atoms: _493  and  _496
REMARK  200  A    between atoms: _496  and  _497
REMARK  201  A    between atoms: _500  and  _502
REMARK  202  A    between atoms: _502  and  _503
REMARK  203  A    between atoms: _505  and  _507
REMARK  204  A    between atoms: _507  and  _508
REMARK  205  A    between atoms: _507  and  _510
REMARK  206  A    between atoms: _513  and  _515
REMARK  207  A    between atoms: _515  and  _516
REMARK  208  A    between atoms: _515  and  _518
REMARK  209  A    between atoms: _518  and  _519
REMARK  210  A    between atoms: _519  and  _520
REMARK  211  A    between atoms: _520  and  _521
REMARK  212  A    between atoms: _521  and  _522
REMARK  213  A    between atoms: _526  and  _528
REMARK  214  A    between atoms: _528  and  _529
REMARK  215  A    between atoms: _528  and  _531
REMARK  216  A    between atoms: _531  and  _532
REMARK  217  A    between atoms: _532  and  _533
REMARK  218  A    between atoms: _533  and  _534
REMARK  219  A    between atoms: _543  and  _545
REMARK  220  A    between atoms: _545  and  _546
REMARK  221  A    between atoms: _545  and  _548
REMARK  222  A    between atoms: _548  and  _549
REMARK  223  A    between atoms: _549  and  _550
REMARK  224  A    between atoms: _553  and  _555
REMARK  225  A    between atoms: _555  and  _556
REMARK  226  A    between atoms: _555  and  _558
REMARK  227  A    between atoms: _558  and  _559
REMARK  228  A    between atoms: _559  and  _560
REMARK  229  A    between atoms: _563  and  _564
REMARK  230  A    between atoms: _569  and  _571
REMARK  231  A    between atoms: _571  and  _572
REMARK  232  A    between atoms: _571  and  _574
REMARK  233  A    between atoms: _574  and  _575
REMARK  234  A    between atoms: _575  and  _576
REMARK  235  A    between atoms: _578  and  _580
REMARK  236  A    between atoms: _580  and  _581
REMARK  237  A    between atoms: _583  and  _585
REMARK  238  A    between atoms: _585  and  _586
REMARK  239  A    between atoms: _585  and  _588
REMARK  240  A    between atoms: _591  and  _593
REMARK  241  A    between atoms: _593  and  _594
REMARK  242  A    between atoms: _593  and  _596
REMARK  243  A    between atoms: _596  and  _597
REMARK  244  A    between atoms: _607  and  _609
REMARK  245  A    between atoms: _609  and  _610
REMARK  246  A    between atoms: _609  and  _612
REMARK  247  A    between atoms: _612  and  _613
REMARK  248  A    between atoms: _613  and  _614
REMARK  249  A    between atoms: _618  and  _619
REMARK  250  A    between atoms: _624  and  _626
REMARK  251  A    between atoms: _626  and  _627
REMARK  252  A    between atoms: _626  and  _629
REMARK  253  A    between atoms: _629  and  _630
REMARK  254  A    between atoms: _633  and  _635
REMARK  255  A    between atoms: _635  and  _636
REMARK  256  A    between atoms: _635  and  _638
REMARK  257  A    between atoms: _638  and  _639
REMARK  258  A    between atoms: _644  and  _646
REMARK  259  A    between atoms: _646  and  _647
REMARK  260  A    between atoms: _646  and  _649
REMARK  261  A    between atoms: _649  and  _650
REMARK                            x       y       z     vdW  Elec       q    Type
REMARK                         _______ _______ _______ _____ _____    ______ ____
ROOT
ATOM      1  O   HOH     1      12.185   4.377  13.120  0.00  0.00    +0.000 OA
ENDROOT
TORSDOF 0
REMARK  Name = ../refined-set-2016/2zym/2zym_pocket.pdb
REMARK  261 active torsions:
REMARK  status: ('A' for Active; 'I' for Inactive)
REMARK    1  A    between atoms: _1  and  _3
REMARK    2  A    between atoms: _3  and  _4
REMARK    3  A    between atoms: _3  and  _6
REMARK    4  A    between atoms: _6  and  _7
REMARK    5  A    between atoms: _7  and  _8
REMARK    6  A    between atoms: _11  and  _13
REMARK    7  A    between atoms: _13  and  _14
REMARK    8  A    between atoms: _13  and  _16
REMARK    9  A    between atoms: _16  and  _17
REMARK   10  A    between atoms: _22  and  _24
REMARK   11  A    between atoms: _24  and  _25
REMARK   12  A    between atoms: _28  and  _30
REMARK   13  A    between atoms: _30  and  _31
REMARK   14  A    between atoms: _30  and  _33
REMARK   15  A    between atoms: _33  and  _34
REMARK   16  A    between atoms: _37  and  _39
REMARK   17  A    between atoms: _39  and  _40
REMARK   18  A    between atoms: _39  and  _42
REMARK   19  A    between atoms: _42  and  _43
REMARK   20  A    between atoms: _43  and  _44
REMARK   21  A    between atoms: _49  and  _51
REMARK   22  A    between atoms: _51  and  _52
REMARK   23  A    between atoms: _51  and  _54
REMARK   24  A    between atoms: _57  and  _59
REMARK   25  A    between atoms: _59  and  _60
REMARK   26  A    between atoms: _63  and  _65
REMARK   27  A    between atoms: _65  and  _66
REMARK   28  A    between atoms: _65  and  _68
REMARK   29  A    between atoms: _68  and  _69
REMARK   30  A    between atoms: _72  and  _74
REMARK   31  A    between atoms: _74  and  _75
REMARK   32  A    between atoms: _74  and  _77
REMARK   33  A    between atoms: _77  and  _78
REMARK   34  A    between atoms: _81  and  _83
REMARK   35  A    between atoms: _83  and  _84
REMARK   36  A    between atoms: _83  and  _86
REMARK   37  A    between atoms: _86  and  _87
REMARK   38  A    between atoms: _87  and  _88
REMARK   39  A    between atoms: _88  and  _89
REMARK   40  A    between atoms: _89  and  _90
REMARK   41  A    between atoms: _94  and  _96
REMARK   42  A    between atoms: _96  and  _97
REMARK   43  A    between atoms: _96  and  _99
REMARK   44  A    between atoms: _99  and  _100
REMARK   45  A    between atoms: _100  and  _101
REMARK   46  A    between atoms: _106  and  _108
REMARK   47  A    between atoms: _108  and  _109
REMARK   48  A    between atoms: _108  and  _111
REMARK   49  A    between atoms: _111  and  _112
REMARK   50  A    between atoms: _112  and  _113
REMARK   51  A    between atoms: _118  and  _120
REMARK   52  A    between atoms: _120  and  _121
REMARK   53  A    between atoms: _120  and  _123
REMARK   54  A    between atoms: _123  and  _124
REMARK   55  A    between atoms: _124  and  _125
REMARK   56  A    between atoms: _128  and  _130
REMARK   57  A    between atoms: _130  and  _131
REMARK   58  A    between atoms: _130  and  _133
REMARK   59  A    between atoms: _133  and  _134
REMARK   60  A    between atoms: _134  and  _135
REMARK   61  A    between atoms: _135  and  _136
REMARK   62  A    between atoms: _136  and  _137
REMARK   63  A    between atoms: _141  and  _143
REMARK   64  A    between atoms: _143  and  _144
REMARK   65  A    between atoms: _143  and  _146
REMARK   66  A    between atoms: _146  and  _147
REMARK   67  A    between atoms: _150  and  _152
REMARK   68  A    between atoms: _152  and  _153
REMARK   69  A    between atoms: _152  and  _155
REMARK   70  A    between atoms: _155  and  _156
REMARK   71  A    between atoms: _167  and  _168
REMARK   72  A    between atoms: _173  and  _175
REMARK   73  A    between atoms: _175  and  _176
REMARK   74  A    between atoms: _175  and  _178
REMARK   75  A    between atoms: _178  and  _179
REMARK   76  A    between atoms: _184  and  _186
REMARK   77  A    between atoms: _186  and  _187
REMARK   78  A    between atoms: _186  and  _189
REMARK   79  A    between atoms: _189  and  _190
REMARK   80  A    between atoms: _193  and  _195
REMARK   81  A    between atoms: _195  and  _196
REMARK   82  A    between atoms: _195  and  _198
REMARK   83  A    between atoms: _198  and  _199
REMARK   84  A    between atoms: _199  and  _200
REMARK   85  A    between atoms: _200  and  _201
REMARK   86  A    between atoms: _210  and  _212
REMARK   87  A    between atoms: _212  and  _213
REMARK   88  A    between atoms: _212  and  _215
REMARK   89  A    between atoms: _215  and  _216
REMARK   90  A    between atoms: _219  and  _221
REMARK   91  A    between atoms: _221  and  _222
REMARK   92  A    between atoms: _221  and  _224
REMARK   93  A    between atoms: _224  and  _225
REMARK   94  A    between atoms: _225  and  _226
REMARK   95  A    between atoms: _229  and  _231
REMARK   96  A    between atoms: _231  and  _232
REMARK   97  A    between atoms: _231  and  _234
REMARK   98  A    between atoms: _234  and  _235
REMARK   99  A    between atoms: _235  and  _236
REMARK  100  A    between atoms: _236  and  _237
REMARK  101  A    between atoms: _237  and  _238
REMARK  102  A    between atoms: _242  and  _244
REMARK  103  A    between atoms: _244  and  _245
REMARK  104  A    between atoms: _248  and  _250
REMARK  105  A    between atoms: _250  and  _251
REMARK  106  A    between atoms: _250  and  _253
REMARK  107  A    between atoms: _253  and  _254
REMARK  108  A    between atoms: _254  and  _255
REMARK  109  A    between atoms: _258  and  _260
REMARK  110  A    between atoms: _260  and  _261
REMARK  111  A    between atoms: _260  and  _263
REMARK  112  A    between atoms: _263  and  _264
REMARK  113  A    between atoms: _266  and  _268
REMARK  114  A    between atoms: _268  and  _269
REMARK  115  A    between atoms: _268  and  _271
REMARK  116  A    between atoms: _274  and  _276
REMARK  117  A    between atoms: _276  and  _277
REMARK  118  A    between atoms: _276  and  _279
REMARK  119  A    between atoms: _279  and  _280
REMARK  120  A    between atoms: _280  and  _281
REMARK  121  A    between atoms: _284  and  _286
REMARK  122  A    between atoms: _286  and  _287
REMARK  123  A    between atoms: _286  and  _289
REMARK  124  A    between atoms: _289  and  _290
REMARK  125  A    between atoms: _295  and  _297
REMARK  126  A    between atoms: _297  and  _298
REMARK  127  A    between atoms: _297  and  _300
REMARK  128  A    between atoms: _300  and  _301
REMARK  129  A    between atoms: _306  and  _308
REMARK  130  A    between atoms: _308  and  _309
REMARK  131  A    between atoms: _308  and  _311
REMARK  132  A    between atoms: _311  and  _312
REMARK  133  A    between atoms: _318  and  _320
REMARK  134  A    between atoms: _320  and  _321
REMARK  135  A    between atoms: _320  and  _323
REMARK  136  A    between atoms: _323  and  _324
REMARK  137  A    between atoms: _329  and  _330
REMARK  138  A    between atoms: _332  and  _334
REMARK  139  A    between atoms: _334  and  _335
REMARK  140  A    between atoms: _334  and  _337
REMARK  141  A    between atoms: _337  and  _338
REMARK  142  A    between atoms: _343  and  _344
REMARK  143  A    between atoms: _346  and  _348
REMARK  144  A    between atoms: _348  and  _349
REMARK  145  A    between atoms: _348  and  _351
REMARK  146  A    between atoms: _351  and  _352
REMARK  147  A    between atoms: _355  and  _357
REMARK  148  A    between atoms: _357  and  _358
REMARK  149  A    between atoms: _357  and  _360
REMARK  150  A    between atoms: _360  and  _361
REMARK  151  A    between atoms: _364  and  _366
REMARK  152  A    between atoms: _366  and  _367
REMARK  153  A    between atoms: _366  and  _369
REMARK  154  A    between atoms: _369  and  _370
REMARK  155  A    between atoms: _370  and  _371
REMARK  156  A    between atoms: _371  and  _372
REMARK  157  A    between atoms: _372  and  _373
REMARK  158  A    between atoms: _377  and  _379
REMARK  159  A    between atoms: _379  and  _380
REMARK  160  A    between atoms: _383  and  _385
REMARK  161  A    between atoms: _385  and  _386
REMARK  162  A    between atoms: _385  and  _388
REMARK  163  A    between atoms: _388  and  _389
REMARK  164  A    between atoms: _392  and  _394
REMARK  165  A    between atoms: _394  and  _395
REMARK  166  A    between atoms: _394  and  _397
REMARK  167  A    between atoms: _397  and  _398
REMARK  168  A    between atoms: _401  and  _403
REMARK  169  A    between atoms: _403  and  _404
REMARK  170  A    between atoms: _403  and  _406
REMARK  171  A    between atoms: _409  and  _411
REMARK  172  A    between atoms: _411  and  _412
REMARK  173  A    between atoms: _411  and  _414
REMARK  174  A    between atoms: _414  and  _415
REMARK  175  A    between atoms: _420  and  _422
REMARK  176  A    between atoms: _422  and  _423
REMARK  177  A    between atoms: _422  and  _425
REMARK  178  A    between atoms: _425  and  _426
REMARK  179  A    between atoms: _431  and  _433
REMARK  180  A    between atoms: _433  and  _434
REMARK  181  A    between atoms: _437  and  _438
REMARK  182  A    between atoms: _443  and  _445
REMARK  183  A    between atoms: _445  and  _446
REMARK  184  A    between atoms: _445  and  _448
REMARK  185  A    between atoms: _448  and  _449
REMARK  186  A    between atoms: _459  and  _461
REMARK  187  A    between atoms: _461  and  _462
REMARK  188  A    between atoms: _465  and  _467
REMARK  189  A    between atoms: _467  and  _468
REMARK  190  A    between atoms: _467  and  _470
REMARK  191  A    between atoms: _470  and  _471
REMARK  192  A    between atoms: _476  and  _477
REMARK  193  A    between atoms: _479  and  _481
REMARK  194  A    between atoms: _481  and  _482
REMARK  195  A    between atoms: _481  and  _484
REMARK  196  A    between atoms: _484  and  _485
REMARK  197  A    between atoms: _491  and  _493
REMARK  198  A    between atoms: _493  and  _494
REMARK  199  A    between atoms: _493  and  _496
REMARK  200  A    between atoms: _496  and  _497
REMARK  201  A    between atoms: _500  and  _502
REMARK  202  A    between atoms: _502  and  _503
REMARK  203  A    between atoms: _505  and  _507
REMARK  204  A    between atoms: _507  and  _508
REMARK  205  A    between atoms: _507  and  _510
REMARK  206  A    between atoms: _513  and  _515
REMARK  207  A    between atoms: _515  and  _516
REMARK  208  A    between atoms: _515  and  _518
REMARK  209  A    between atoms: _518  and  _519
REMARK  210  A    between atoms: _519  and  _520
REMARK  211  A    between atoms: _520  and  _521
REMARK  212  A    between atoms: _521  and  _522
REMARK  213  A    between atoms: _526  and  _528
REMARK  214  A    between atoms: _528  and  _529
REMARK  215  A    between atoms: _528  and  _531
REMARK  216  A    between atoms: _531  and  _532
REMARK  217  A    between atoms: _532  and  _533
REMARK  218  A    between atoms: _533  and  _534
REMARK  219  A    between atoms: _543  and  _545
REMARK  220  A    between atoms: _545  and  _546
REMARK  221  A    between atoms: _545  and  _548
REMARK  222  A    between atoms: _548  and  _549
REMARK  223  A    between atoms: _549  and  _550
REMARK  224  A    between atoms: _553  and  _555
REMARK  225  A    between atoms: _555  and  _556
REMARK  226  A    between atoms: _555  and  _558
REMARK  227  A    between atoms: _558  and  _559
REMARK  228  A    between atoms: _559  and  _560
REMARK  229  A    between atoms: _563  and  _564
REMARK  230  A    between atoms: _569  and  _571
REMARK  231  A    between atoms: _571  and  _572
REMARK  232  A    between atoms: _571  and  _574
REMARK  233  A    between atoms: _574  and  _575
REMARK  234  A    between atoms: _575  and  _576
REMARK  235  A    between atoms: _578  and  _580
REMARK  236  A    between atoms: _580  and  _581
REMARK  237  A    between atoms: _583  and  _585
REMARK  238  A    between atoms: _585  and  _586
REMARK  239  A    between atoms: _585  and  _588
REMARK  240  A    between atoms: _591  and  _593
REMARK  241  A    between atoms: _593  and  _594
REMARK  242  A    between atoms: _593  and  _596
REMARK  243  A    between atoms: _596  and  _597
REMARK  244  A    between atoms: _607  and  _609
REMARK  245  A    between atoms: _609  and  _610
REMARK  246  A    between atoms: _609  and  _612
REMARK  247  A    between atoms: _612  and  _613
REMARK  248  A    between atoms: _613  and  _614
REMARK  249  A    between atoms: _618  and  _619
REMARK  250  A    between atoms: _624  and  _626
REMARK  251  A    between atoms: _626  and  _627
REMARK  252  A    between atoms: _626  and  _629
REMARK  253  A    between atoms: _629  and  _630
REMARK  254  A    between atoms: _633  and  _635
REMARK  255  A    between atoms: _635  and  _636
REMARK  256  A    between atoms: _635  and  _638
REMARK  257  A    between atoms: _638  and  _639
REMARK  258  A    between atoms: _644  and  _646
REMARK  259  A    between atoms: _646  and  _647
REMARK  260  A    between atoms: _646  and  _649
REMARK  261  A    between atoms: _649  and  _650
REMARK                            x       y       z     vdW  Elec       q    Type
REMARK                         _______ _______ _______ _____ _____    ______ ____
ROOT
ATOM      1  O   HOH     1      10.523   8.503  13.261  0.00  0.00    +0.000 OA
ENDROOT
TORSDOF 0
REMARK  Name = ../refined-set-2016/2zym/2zym_pocket.pdb
REMARK  261 active torsions:
REMARK  status: ('A' for Active; 'I' for Inactive)
REMARK    1  A    between atoms: _1  and  _3
REMARK    2  A    between atoms: _3  and  _4
REMARK    3  A    between atoms: _3  and  _6
REMARK    4  A    between atoms: _6  and  _7
REMARK    5  A    between atoms: _7  and  _8
REMARK    6  A    between atoms: _11  and  _13
REMARK    7  A    between atoms: _13  and  _14
REMARK    8  A    between atoms: _13  and  _16
REMARK    9  A    between atoms: _16  and  _17
REMARK   10  A    between atoms: _22  and  _24
REMARK   11  A    between atoms: _24  and  _25
REMARK   12  A    between atoms: _28  and  _30
REMARK   13  A    between atoms: _30  and  _31
REMARK   14  A    between atoms: _30  and  _33
REMARK   15  A    between atoms: _33  and  _34
REMARK   16  A    between atoms: _37  and  _39
REMARK   17  A    between atoms: _39  and  _40
REMARK   18  A    between atoms: _39  and  _42
REMARK   19  A    between atoms: _42  and  _43
REMARK   20  A    between atoms: _43  and  _44
REMARK   21  A    between atoms: _49  and  _51
REMARK   22  A    between atoms: _51  and  _52
REMARK   23  A    between atoms: _51  and  _54
REMARK   24  A    between atoms: _57  and  _59
REMARK   25  A    between atoms: _59  and  _60
REMARK   26  A    between atoms: _63  and  _65
REMARK   27  A    between atoms: _65  and  _66
REMARK   28  A    between atoms: _65  and  _68
REMARK   29  A    between atoms: _68  and  _69
REMARK   30  A    between atoms: _72  and  _74
REMARK   31  A    between atoms: _74  and  _75
REMARK   32  A    between atoms: _74  and  _77
REMARK   33  A    between atoms: _77  and  _78
REMARK   34  A    between atoms: _81  and  _83
REMARK   35  A    between atoms: _83  and  _84
REMARK   36  A    between atoms: _83  and  _86
REMARK   37  A    between atoms: _86  and  _87
REMARK   38  A    between atoms: _87  and  _88
REMARK   39  A    between atoms: _88  and  _89
REMARK   40  A    between atoms: _89  and  _90
REMARK   41  A    between atoms: _94  and  _96
REMARK   42  A    between atoms: _96  and  _97
REMARK   43  A    between atoms: _96  and  _99
REMARK   44  A    between atoms: _99  and  _100
REMARK   45  A    between atoms: _100  and  _101
REMARK   46  A    between atoms: _106  and  _108
REMARK   47  A    between atoms: _108  and  _109
REMARK   48  A    between atoms: _108  and  _111
REMARK   49  A    between atoms: _111  and  _112
REMARK   50  A    between atoms: _112  and  _113
REMARK   51  A    between atoms: _118  and  _120
REMARK   52  A    between atoms: _120  and  _121
REMARK   53  A    between atoms: _120  and  _123
REMARK   54  A    between atoms: _123  and  _124
REMARK   55  A    between atoms: _124  and  _125
REMARK   56  A    between atoms: _128  and  _130
REMARK   57  A    between atoms: _130  and  _131
REMARK   58  A    between atoms: _130  and  _133
REMARK   59  A    between atoms: _133  and  _134
REMARK   60  A    between atoms: _134  and  _135
REMARK   61  A    between atoms: _135  and  _136
REMARK   62  A    between atoms: _136  and  _137
REMARK   63  A    between atoms: _141  and  _143
REMARK   64  A    between atoms: _143  and  _144
REMARK   65  A    between atoms: _143  and  _146
REMARK   66  A    between atoms: _146  and  _147
REMARK   67  A    between atoms: _150  and  _152
REMARK   68  A    between atoms: _152  and  _153
REMARK   69  A    between atoms: _152  and  _155
REMARK   70  A    between atoms: _155  and  _156
REMARK   71  A    between atoms: _167  and  _168
REMARK   72  A    between atoms: _173  and  _175
REMARK   73  A    between atoms: _175  and  _176
REMARK   74  A    between atoms: _175  and  _178
REMARK   75  A    between atoms: _178  and  _179
REMARK   76  A    between atoms: _184  and  _186
REMARK   77  A    between atoms: _186  and  _187
REMARK   78  A    between atoms: _186  and  _189
REMARK   79  A    between atoms: _189  and  _190
REMARK   80  A    between atoms: _193  and  _195
REMARK   81  A    between atoms: _195  and  _196
REMARK   82  A    between atoms: _195  and  _198
REMARK   83  A    between atoms: _198  and  _199
REMARK   84  A    between atoms: _199  and  _200
REMARK   85  A    between atoms: _200  and  _201
REMARK   86  A    between atoms: _210  and  _212
REMARK   87  A    between atoms: _212  and  _213
REMARK   88  A    between atoms: _212  and  _215
REMARK   89  A    between atoms: _215  and  _216
REMARK   90  A    between atoms: _219  and  _221
REMARK   91  A    between atoms: _221  and  _222
REMARK   92  A    between atoms: _221  and  _224
REMARK   93  A    between atoms: _224  and  _225
REMARK   94  A    between atoms: _225  and  _226
REMARK   95  A    between atoms: _229  and  _231
REMARK   96  A    between atoms: _231  and  _232
REMARK   97  A    between atoms: _231  and  _234
REMARK   98  A    between atoms: _234  and  _235
REMARK   99  A    between atoms: _235  and  _236
REMARK  100  A    between atoms: _236  and  _237
REMARK  101  A    between atoms: _237  and  _238
REMARK  102  A    between atoms: _242  and  _244
REMARK  103  A    between atoms: _244  and  _245
REMARK  104  A    between atoms: _248  and  _250
REMARK  105  A    between atoms: _250  and  _251
REMARK  106  A    between atoms: _250  and  _253
REMARK  107  A    between atoms: _253  and  _254
REMARK  108  A    between atoms: _254  and  _255
REMARK  109  A    between atoms: _258  and  _260
REMARK  110  A    between atoms: _260  and  _261
REMARK  111  A    between atoms: _260  and  _263
REMARK  112  A    between atoms: _263  and  _264
REMARK  113  A    between atoms: _266  and  _268
REMARK  114  A    between atoms: _268  and  _269
REMARK  115  A    between atoms: _268  and  _271
REMARK  116  A    between atoms: _274  and  _276
REMARK  117  A    between atoms: _276  and  _277
REMARK  118  A    between atoms: _276  and  _279
REMARK  119  A    between atoms: _279  and  _280
REMARK  120  A    between atoms: _280  and  _281
REMARK  121  A    between atoms: _284  and  _286
REMARK  122  A    between atoms: _286  and  _287
REMARK  123  A    between atoms: _286  and  _289
REMARK  124  A    between atoms: _289  and  _290
REMARK  125  A    between atoms: _295  and  _297
REMARK  126  A    between atoms: _297  and  _298
REMARK  127  A    between atoms: _297  and  _300
REMARK  128  A    between atoms: _300  and  _301
REMARK  129  A    between atoms: _306  and  _308
REMARK  130  A    between atoms: _308  and  _309
REMARK  131  A    between atoms: _308  and  _311
REMARK  132  A    between atoms: _311  and  _312
REMARK  133  A    between atoms: _318  and  _320
REMARK  134  A    between atoms: _320  and  _321
REMARK  135  A    between atoms: _320  and  _323
REMARK  136  A    between atoms: _323  and  _324
REMARK  137  A    between atoms: _329  and  _330
REMARK  138  A    between atoms: _332  and  _334
REMARK  139  A    between atoms: _334  and  _335
REMARK  140  A    between atoms: _334  and  _337
REMARK  141  A    between atoms: _337  and  _338
REMARK  142  A    between atoms: _343  and  _344
REMARK  143  A    between atoms: _346  and  _348
REMARK  144  A    between atoms: _348  and  _349
REMARK  145  A    between atoms: _348  and  _351
REMARK  146  A    between atoms: _351  and  _352
REMARK  147  A    between atoms: _355  and  _357
REMARK  148  A    between atoms: _357  and  _358
REMARK  149  A    between atoms: _357  and  _360
REMARK  150  A    between atoms: _360  and  _361
REMARK  151  A    between atoms: _364  and  _366
REMARK  152  A    between atoms: _366  and  _367
REMARK  153  A    between atoms: _366  and  _369
REMARK  154  A    between atoms: _369  and  _370
REMARK  155  A    between atoms: _370  and  _371
REMARK  156  A    between atoms: _371  and  _372
REMARK  157  A    between atoms: _372  and  _373
REMARK  158  A    between atoms: _377  and  _379
REMARK  159  A    between atoms: _379  and  _380
REMARK  160  A    between atoms: _383  and  _385
REMARK  161  A    between atoms: _385  and  _386
REMARK  162  A    between atoms: _385  and  _388
REMARK  163  A    between atoms: _388  and  _389
REMARK  164  A    between atoms: _392  and  _394
REMARK  165  A    between atoms: _394  and  _395
REMARK  166  A    between atoms: _394  and  _397
REMARK  167  A    between atoms: _397  and  _398
REMARK  168  A    between atoms: _401  and  _403
REMARK  169  A    between atoms: _403  and  _404
REMARK  170  A    between atoms: _403  and  _406
REMARK  171  A    between atoms: _409  and  _411
REMARK  172  A    between atoms: _411  and  _412
REMARK  173  A    between atoms: _411  and  _414
REMARK  174  A    between atoms: _414  and  _415
REMARK  175  A    between atoms: _420  and  _422
REMARK  176  A    between atoms: _422  and  _423
REMARK  177  A    between atoms: _422  and  _425
REMARK  178  A    between atoms: _425  and  _426
REMARK  179  A    between atoms: _431  and  _433
REMARK  180  A    between atoms: _433  and  _434
REMARK  181  A    between atoms: _437  and  _438
REMARK  182  A    between atoms: _443  and  _445
REMARK  183  A    between atoms: _445  and  _446
REMARK  184  A    between atoms: _445  and  _448
REMARK  185  A    between atoms: _448  and  _449
REMARK  186  A    between atoms: _459  and  _461
REMARK  187  A    between atoms: _461  and  _462
REMARK  188  A    between atoms: _465  and  _467
REMARK  189  A    between atoms: _467  and  _468
REMARK  190  A    between atoms: _467  and  _470
REMARK  191  A    between atoms: _470  and  _471
REMARK  192  A    between atoms: _476  and  _477
REMARK  193  A    between atoms: _479  and  _481
REMARK  194  A    between atoms: _481  and  _482
REMARK  195  A    between atoms: _481  and  _484
REMARK  196  A    between atoms: _484  and  _485
REMARK  197  A    between atoms: _491  and  _493
REMARK  198  A    between atoms: _493  and  _494
REMARK  199  A    between atoms: _493  and  _496
REMARK  200  A    between atoms: _496  and  _497
REMARK  201  A    between atoms: _500  and  _502
REMARK  202  A    between atoms: _502  and  _503
REMARK  203  A    between atoms: _505  and  _507
REMARK  204  A    between atoms: _507  and  _508
REMARK  205  A    between atoms: _507  and  _510
REMARK  206  A    between atoms: _513  and  _515
REMARK  207  A    between atoms: _515  and  _516
REMARK  208  A    between atoms: _515  and  _518
REMARK  209  A    between atoms: _518  and  _519
REMARK  210  A    between atoms: _519  and  _520
REMARK  211  A    between atoms: _520  and  _521
REMARK  212  A    between atoms: _521  and  _522
REMARK  213  A    between atoms: _526  and  _528
REMARK  214  A    between atoms: _528  and  _529
REMARK  215  A    between atoms: _528  and  _531
REMARK  216  A    between atoms: _531  and  _532
REMARK  217  A    between atoms: _532  and  _533
REMARK  218  A    between atoms: _533  and  _534
REMARK  219  A    between atoms: _543  and  _545
REMARK  220  A    between atoms: _545  and  _546
REMARK  221  A    between atoms: _545  and  _548
REMARK  222  A    between atoms: _548  and  _549
REMARK  223  A    between atoms: _549  and  _550
REMARK  224  A    between atoms: _553  and  _555
REMARK  225  A    between atoms: _555  and  _556
REMARK  226  A    between atoms: _555  and  _558
REMARK  227  A    between atoms: _558  and  _559
REMARK  228  A    between atoms: _559  and  _560
REMARK  229  A    between atoms: _563  and  _564
REMARK  230  A    between atoms: _569  and  _571
REMARK  231  A    between atoms: _571  and  _572
REMARK  232  A    between atoms: _571  and  _574
REMARK  233  A    between atoms: _574  and  _575
REMARK  234  A    between atoms: _575  and  _576
REMARK  235  A    between atoms: _578  and  _580
REMARK  236  A    between atoms: _580  and  _581
REMARK  237  A    between atoms: _583  and  _585
REMARK  238  A    between atoms: _585  and  _586
REMARK  239  A    between atoms: _585  and  _588
REMARK  240  A    between atoms: _591  and  _593
REMARK  241  A    between atoms: _593  and  _594
REMARK  242  A    between atoms: _593  and  _596
REMARK  243  A    between atoms: _596  and  _597
REMARK  244  A    between atoms: _607  and  _609
REMARK  245  A    between atoms: _609  and  _610
REMARK  246  A    between atoms: _609  and  _612
REMARK  247  A    between atoms: _612  and  _613
REMARK  248  A    between atoms: _613  and  _614
REMARK  249  A    between atoms: _618  and  _619
REMARK  250  A    between atoms: _624  and  _626
REMARK  251  A    between atoms: _626  and  _627
REMARK  252  A    between atoms: _626  and  _629
REMARK  253  A    between atoms: _629  and  _630
REMARK  254  A    between atoms: _633  and  _635
REMARK  255  A    between atoms: _635  and  _636
REMARK  256  A    between atoms: _635  and  _638
REMARK  257  A    between atoms: _638  and  _639
REMARK  258  A    between atoms: _644  and  _646
REMARK  259  A    between atoms: _646  and  _647
REMARK  260  A    between atoms: _646  and  _649
REMARK  261  A    between atoms: _649  and  _650
REMARK                            x       y       z     vdW  Elec       q    Type
REMARK                         _______ _______ _______ _____ _____    ______ ____
ROOT
ATOM      1  O   HOH     1      27.780  16.245  17.656  0.00  0.00    +0.000 OA
ENDROOT
TORSDOF 0
REMARK  Name = ../refined-set-2016/2zym/2zym_pocket.pdb
REMARK  261 active torsions:
REMARK  status: ('A' for Active; 'I' for Inactive)
REMARK    1  A    between atoms: _1  and  _3
REMARK    2  A    between atoms: _3  and  _4
REMARK    3  A    between atoms: _3  and  _6
REMARK    4  A    between atoms: _6  and  _7
REMARK    5  A    between atoms: _7  and  _8
REMARK    6  A    between atoms: _11  and  _13
REMARK    7  A    between atoms: _13  and  _14
REMARK    8  A    between atoms: _13  and  _16
REMARK    9  A    between atoms: _16  and  _17
REMARK   10  A    between atoms: _22  and  _24
REMARK   11  A    between atoms: _24  and  _25
REMARK   12  A    between atoms: _28  and  _30
REMARK   13  A    between atoms: _30  and  _31
REMARK   14  A    between atoms: _30  and  _33
REMARK   15  A    between atoms: _33  and  _34
REMARK   16  A    between atoms: _37  and  _39
REMARK   17  A    between atoms: _39  and  _40
REMARK   18  A    between atoms: _39  and  _42
REMARK   19  A    between atoms: _42  and  _43
REMARK   20  A    between atoms: _43  and  _44
REMARK   21  A    between atoms: _49  and  _51
REMARK   22  A    between atoms: _51  and  _52
REMARK   23  A    between atoms: _51  and  _54
REMARK   24  A    between atoms: _57  and  _59
REMARK   25  A    between atoms: _59  and  _60
REMARK   26  A    between atoms: _63  and  _65
REMARK   27  A    between atoms: _65  and  _66
REMARK   28  A    between atoms: _65  and  _68
REMARK   29  A    between atoms: _68  and  _69
REMARK   30  A    between atoms: _72  and  _74
REMARK   31  A    between atoms: _74  and  _75
REMARK   32  A    between atoms: _74  and  _77
REMARK   33  A    between atoms: _77  and  _78
REMARK   34  A    between atoms: _81  and  _83
REMARK   35  A    between atoms: _83  and  _84
REMARK   36  A    between atoms: _83  and  _86
REMARK   37  A    between atoms: _86  and  _87
REMARK   38  A    between atoms: _87  and  _88
REMARK   39  A    between atoms: _88  and  _89
REMARK   40  A    between atoms: _89  and  _90
REMARK   41  A    between atoms: _94  and  _96
REMARK   42  A    between atoms: _96  and  _97
REMARK   43  A    between atoms: _96  and  _99
REMARK   44  A    between atoms: _99  and  _100
REMARK   45  A    between atoms: _100  and  _101
REMARK   46  A    between atoms: _106  and  _108
REMARK   47  A    between atoms: _108  and  _109
REMARK   48  A    between atoms: _108  and  _111
REMARK   49  A    between atoms: _111  and  _112
REMARK   50  A    between atoms: _112  and  _113
REMARK   51  A    between atoms: _118  and  _120
REMARK   52  A    between atoms: _120  and  _121
REMARK   53  A    between atoms: _120  and  _123
REMARK   54  A    between atoms: _123  and  _124
REMARK   55  A    between atoms: _124  and  _125
REMARK   56  A    between atoms: _128  and  _130
REMARK   57  A    between atoms: _130  and  _131
REMARK   58  A    between atoms: _130  and  _133
REMARK   59  A    between atoms: _133  and  _134
REMARK   60  A    between atoms: _134  and  _135
REMARK   61  A    between atoms: _135  and  _136
REMARK   62  A    between atoms: _136  and  _137
REMARK   63  A    between atoms: _141  and  _143
REMARK   64  A    between atoms: _143  and  _144
REMARK   65  A    between atoms: _143  and  _146
REMARK   66  A    between atoms: _146  and  _147
REMARK   67  A    between atoms: _150  and  _152
REMARK   68  A    between atoms: _152  and  _153
REMARK   69  A    between atoms: _152  and  _155
REMARK   70  A    between atoms: _155  and  _156
REMARK   71  A    between atoms: _167  and  _168
REMARK   72  A    between atoms: _173  and  _175
REMARK   73  A    between atoms: _175  and  _176
REMARK   74  A    between atoms: _175  and  _178
REMARK   75  A    between atoms: _178  and  _179
REMARK   76  A    between atoms: _184  and  _186
REMARK   77  A    between atoms: _186  and  _187
REMARK   78  A    between atoms: _186  and  _189
REMARK   79  A    between atoms: _189  and  _190
REMARK   80  A    between atoms: _193  and  _195
REMARK   81  A    between atoms: _195  and  _196
REMARK   82  A    between atoms: _195  and  _198
REMARK   83  A    between atoms: _198  and  _199
REMARK   84  A    between atoms: _199  and  _200
REMARK   85  A    between atoms: _200  and  _201
REMARK   86  A    between atoms: _210  and  _212
REMARK   87  A    between atoms: _212  and  _213
REMARK   88  A    between atoms: _212  and  _215
REMARK   89  A    between atoms: _215  and  _216
REMARK   90  A    between atoms: _219  and  _221
REMARK   91  A    between atoms: _221  and  _222
REMARK   92  A    between atoms: _221  and  _224
REMARK   93  A    between atoms: _224  and  _225
REMARK   94  A    between atoms: _225  and  _226
REMARK   95  A    between atoms: _229  and  _231
REMARK   96  A    between atoms: _231  and  _232
REMARK   97  A    between atoms: _231  and  _234
REMARK   98  A    between atoms: _234  and  _235
REMARK   99  A    between atoms: _235  and  _236
REMARK  100  A    between atoms: _236  and  _237
REMARK  101  A    between atoms: _237  and  _238
REMARK  102  A    between atoms: _242  and  _244
REMARK  103  A    between atoms: _244  and  _245
REMARK  104  A    between atoms: _248  and  _250
REMARK  105  A    between atoms: _250  and  _251
REMARK  106  A    between atoms: _250  and  _253
REMARK  107  A    between atoms: _253  and  _254
REMARK  108  A    between atoms: _254  and  _255
REMARK  109  A    between atoms: _258  and  _260
REMARK  110  A    between atoms: _260  and  _261
REMARK  111  A    between atoms: _260  and  _263
REMARK  112  A    between atoms: _263  and  _264
REMARK  113  A    between atoms: _266  and  _268
REMARK  114  A    between atoms: _268  and  _269
REMARK  115  A    between atoms: _268  and  _271
REMARK  116  A    between atoms: _274  and  _276
REMARK  117  A    between atoms: _276  and  _277
REMARK  118  A    between atoms: _276  and  _279
REMARK  119  A    between atoms: _279  and  _280
REMARK  120  A    between atoms: _280  and  _281
REMARK  121  A    between atoms: _284  and  _286
REMARK  122  A    between atoms: _286  and  _287
REMARK  123  A    between atoms: _286  and  _289
REMARK  124  A    between atoms: _289  and  _290
REMARK  125  A    between atoms: _295  and  _297
REMARK  126  A    between atoms: _297  and  _298
REMARK  127  A    between atoms: _297  and  _300
REMARK  128  A    between atoms: _300  and  _301
REMARK  129  A    between atoms: _306  and  _308
REMARK  130  A    between atoms: _308  and  _309
REMARK  131  A    between atoms: _308  and  _311
REMARK  132  A    between atoms: _311  and  _312
REMARK  133  A    between atoms: _318  and  _320
REMARK  134  A    between atoms: _320  and  _321
REMARK  135  A    between atoms: _320  and  _323
REMARK  136  A    between atoms: _323  and  _324
REMARK  137  A    between atoms: _329  and  _330
REMARK  138  A    between atoms: _332  and  _334
REMARK  139  A    between atoms: _334  and  _335
REMARK  140  A    between atoms: _334  and  _337
REMARK  141  A    between atoms: _337  and  _338
REMARK  142  A    between atoms: _343  and  _344
REMARK  143  A    between atoms: _346  and  _348
REMARK  144  A    between atoms: _348  and  _349
REMARK  145  A    between atoms: _348  and  _351
REMARK  146  A    between atoms: _351  and  _352
REMARK  147  A    between atoms: _355  and  _357
REMARK  148  A    between atoms: _357  and  _358
REMARK  149  A    between atoms: _357  and  _360
REMARK  150  A    between atoms: _360  and  _361
REMARK  151  A    between atoms: _364  and  _366
REMARK  152  A    between atoms: _366  and  _367
REMARK  153  A    between atoms: _366  and  _369
REMARK  154  A    between atoms: _369  and  _370
REMARK  155  A    between atoms: _370  and  _371
REMARK  156  A    between atoms: _371  and  _372
REMARK  157  A    between atoms: _372  and  _373
REMARK  158  A    between atoms: _377  and  _379
REMARK  159  A    between atoms: _379  and  _380
REMARK  160  A    between atoms: _383  and  _385
REMARK  161  A    between atoms: _385  and  _386
REMARK  162  A    between atoms: _385  and  _388
REMARK  163  A    between atoms: _388  and  _389
REMARK  164  A    between atoms: _392  and  _394
REMARK  165  A    between atoms: _394  and  _395
REMARK  166  A    between atoms: _394  and  _397
REMARK  167  A    between atoms: _397  and  _398
REMARK  168  A    between atoms: _401  and  _403
REMARK  169  A    between atoms: _403  and  _404
REMARK  170  A    between atoms: _403  and  _406
REMARK  171  A    between atoms: _409  and  _411
REMARK  172  A    between atoms: _411  and  _412
REMARK  173  A    between atoms: _411  and  _414
REMARK  174  A    between atoms: _414  and  _415
REMARK  175  A    between atoms: _420  and  _422
REMARK  176  A    between atoms: _422  and  _423
REMARK  177  A    between atoms: _422  and  _425
REMARK  178  A    between atoms: _425  and  _426
REMARK  179  A    between atoms: _431  and  _433
REMARK  180  A    between atoms: _433  and  _434
REMARK  181  A    between atoms: _437  and  _438
REMARK  182  A    between atoms: _443  and  _445
REMARK  183  A    between atoms: _445  and  _446
REMARK  184  A    between atoms: _445  and  _448
REMARK  185  A    between atoms: _448  and  _449
REMARK  186  A    between atoms: _459  and  _461
REMARK  187  A    between atoms: _461  and  _462
REMARK  188  A    between atoms: _465  and  _467
REMARK  189  A    between atoms: _467  and  _468
REMARK  190  A    between atoms: _467  and  _470
REMARK  191  A    between atoms: _470  and  _471
REMARK  192  A    between atoms: _476  and  _477
REMARK  193  A    between atoms: _479  and  _481
REMARK  194  A    between atoms: _481  and  _482
REMARK  195  A    between atoms: _481  and  _484
REMARK  196  A    between atoms: _484  and  _485
REMARK  197  A    between atoms: _491  and  _493
REMARK  198  A    between atoms: _493  and  _494
REMARK  199  A    between atoms: _493  and  _496
REMARK  200  A    between atoms: _496  and  _497
REMARK  201  A    between atoms: _500  and  _502
REMARK  202  A    between atoms: _502  and  _503
REMARK  203  A    between atoms: _505  and  _507
REMARK  204  A    between atoms: _507  and  _508
REMARK  205  A    between atoms: _507  and  _510
REMARK  206  A    between atoms: _513  and  _515
REMARK  207  A    between atoms: _515  and  _516
REMARK  208  A    between atoms: _515  and  _518
REMARK  209  A    between atoms: _518  and  _519
REMARK  210  A    between atoms: _519  and  _520
REMARK  211  A    between atoms: _520  and  _521
REMARK  212  A    between atoms: _521  and  _522
REMARK  213  A    between atoms: _526  and  _528
REMARK  214  A    between atoms: _528  and  _529
REMARK  215  A    between atoms: _528  and  _531
REMARK  216  A    between atoms: _531  and  _532
REMARK  217  A    between atoms: _532  and  _533
REMARK  218  A    between atoms: _533  and  _534
REMARK  219  A    between atoms: _543  and  _545
REMARK  220  A    between atoms: _545  and  _546
REMARK  221  A    between atoms: _545  and  _548
REMARK  222  A    between atoms: _548  and  _549
REMARK  223  A    between atoms: _549  and  _550
REMARK  224  A    between atoms: _553  and  _555
REMARK  225  A    between atoms: _555  and  _556
REMARK  226  A    between atoms: _555  and  _558
REMARK  227  A    between atoms: _558  and  _559
REMARK  228  A    between atoms: _559  and  _560
REMARK  229  A    between atoms: _563  and  _564
REMARK  230  A    between atoms: _569  and  _571
REMARK  231  A    between atoms: _571  and  _572
REMARK  232  A    between atoms: _571  and  _574
REMARK  233  A    between atoms: _574  and  _575
REMARK  234  A    between atoms: _575  and  _576
REMARK  235  A    between atoms: _578  and  _580
REMARK  236  A    between atoms: _580  and  _581
REMARK  237  A    between atoms: _583  and  _585
REMARK  238  A    between atoms: _585  and  _586
REMARK  239  A    between atoms: _585  and  _588
REMARK  240  A    between atoms: _591  and  _593
REMARK  241  A    between atoms: _593  and  _594
REMARK  242  A    between atoms: _593  and  _596
REMARK  243  A    between atoms: _596  and  _597
REMARK  244  A    between atoms: _607  and  _609
REMARK  245  A    between atoms: _609  and  _610
REMARK  246  A    between atoms: _609  and  _612
REMARK  247  A    between atoms: _612  and  _613
REMARK  248  A    between atoms: _613  and  _614
REMARK  249  A    between atoms: _618  and  _619
REMARK  250  A    between atoms: _624  and  _626
REMARK  251  A    between atoms: _626  and  _627
REMARK  252  A    between atoms: _626  and  _629
REMARK  253  A    between atoms: _629  and  _630
REMARK  254  A    between atoms: _633  and  _635
REMARK  255  A    between atoms: _635  and  _636
REMARK  256  A    between atoms: _635  and  _638
REMARK  257  A    between atoms: _638  and  _639
REMARK  258  A    between atoms: _644  and  _646
REMARK  259  A    between atoms: _646  and  _647
REMARK  260  A    between atoms: _646  and  _649
REMARK  261  A    between atoms: _649  and  _650
REMARK                            x       y       z     vdW  Elec       q    Type
REMARK                         _______ _______ _______ _____ _____    ______ ____
ROOT
ATOM      1  O   HOH     1      22.795   8.434   9.668  0.00  0.00    +0.000 OA
ENDROOT
TORSDOF 0
REMARK  Name = ../refined-set-2016/2zym/2zym_pocket.pdb
REMARK  261 active torsions:
REMARK  status: ('A' for Active; 'I' for Inactive)
REMARK    1  A    between atoms: _1  and  _3
REMARK    2  A    between atoms: _3  and  _4
REMARK    3  A    between atoms: _3  and  _6
REMARK    4  A    between atoms: _6  and  _7
REMARK    5  A    between atoms: _7  and  _8
REMARK    6  A    between atoms: _11  and  _13
REMARK    7  A    between atoms: _13  and  _14
REMARK    8  A    between atoms: _13  and  _16
REMARK    9  A    between atoms: _16  and  _17
REMARK   10  A    between atoms: _22  and  _24
REMARK   11  A    between atoms: _24  and  _25
REMARK   12  A    between atoms: _28  and  _30
REMARK   13  A    between atoms: _30  and  _31
REMARK   14  A    between atoms: _30  and  _33
REMARK   15  A    between atoms: _33  and  _34
REMARK   16  A    between atoms: _37  and  _39
REMARK   17  A    between atoms: _39  and  _40
REMARK   18  A    between atoms: _39  and  _42
REMARK   19  A    between atoms: _42  and  _43
REMARK   20  A    between atoms: _43  and  _44
REMARK   21  A    between atoms: _49  and  _51
REMARK   22  A    between atoms: _51  and  _52
REMARK   23  A    between atoms: _51  and  _54
REMARK   24  A    between atoms: _57  and  _59
REMARK   25  A    between atoms: _59  and  _60
REMARK   26  A    between atoms: _63  and  _65
REMARK   27  A    between atoms: _65  and  _66
REMARK   28  A    between atoms: _65  and  _68
REMARK   29  A    between atoms: _68  and  _69
REMARK   30  A    between atoms: _72  and  _74
REMARK   31  A    between atoms: _74  and  _75
REMARK   32  A    between atoms: _74  and  _77
REMARK   33  A    between atoms: _77  and  _78
REMARK   34  A    between atoms: _81  and  _83
REMARK   35  A    between atoms: _83  and  _84
REMARK   36  A    between atoms: _83  and  _86
REMARK   37  A    between atoms: _86  and  _87
REMARK   38  A    between atoms: _87  and  _88
REMARK   39  A    between atoms: _88  and  _89
REMARK   40  A    between atoms: _89  and  _90
REMARK   41  A    between atoms: _94  and  _96
REMARK   42  A    between atoms: _96  and  _97
REMARK   43  A    between atoms: _96  and  _99
REMARK   44  A    between atoms: _99  and  _100
REMARK   45  A    between atoms: _100  and  _101
REMARK   46  A    between atoms: _106  and  _108
REMARK   47  A    between atoms: _108  and  _109
REMARK   48  A    between atoms: _108  and  _111
REMARK   49  A    between atoms: _111  and  _112
REMARK   50  A    between atoms: _112  and  _113
REMARK   51  A    between atoms: _118  and  _120
REMARK   52  A    between atoms: _120  and  _121
REMARK   53  A    between atoms: _120  and  _123
REMARK   54  A    between atoms: _123  and  _124
REMARK   55  A    between atoms: _124  and  _125
REMARK   56  A    between atoms: _128  and  _130
REMARK   57  A    between atoms: _130  and  _131
REMARK   58  A    between atoms: _130  and  _133
REMARK   59  A    between atoms: _133  and  _134
REMARK   60  A    between atoms: _134  and  _135
REMARK   61  A    between atoms: _135  and  _136
REMARK   62  A    between atoms: _136  and  _137
REMARK   63  A    between atoms: _141  and  _143
REMARK   64  A    between atoms: _143  and  _144
REMARK   65  A    between atoms: _143  and  _146
REMARK   66  A    between atoms: _146  and  _147
REMARK   67  A    between atoms: _150  and  _152
REMARK   68  A    between atoms: _152  and  _153
REMARK   69  A    between atoms: _152  and  _155
REMARK   70  A    between atoms: _155  and  _156
REMARK   71  A    between atoms: _167  and  _168
REMARK   72  A    between atoms: _173  and  _175
REMARK   73  A    between atoms: _175  and  _176
REMARK   74  A    between atoms: _175  and  _178
REMARK   75  A    between atoms: _178  and  _179
REMARK   76  A    between atoms: _184  and  _186
REMARK   77  A    between atoms: _186  and  _187
REMARK   78  A    between atoms: _186  and  _189
REMARK   79  A    between atoms: _189  and  _190
REMARK   80  A    between atoms: _193  and  _195
REMARK   81  A    between atoms: _195  and  _196
REMARK   82  A    between atoms: _195  and  _198
REMARK   83  A    between atoms: _198  and  _199
REMARK   84  A    between atoms: _199  and  _200
REMARK   85  A    between atoms: _200  and  _201
REMARK   86  A    between atoms: _210  and  _212
REMARK   87  A    between atoms: _212  and  _213
REMARK   88  A    between atoms: _212  and  _215
REMARK   89  A    between atoms: _215  and  _216
REMARK   90  A    between atoms: _219  and  _221
REMARK   91  A    between atoms: _221  and  _222
REMARK   92  A    between atoms: _221  and  _224
REMARK   93  A    between atoms: _224  and  _225
REMARK   94  A    between atoms: _225  and  _226
REMARK   95  A    between atoms: _229  and  _231
REMARK   96  A    between atoms: _231  and  _232
REMARK   97  A    between atoms: _231  and  _234
REMARK   98  A    between atoms: _234  and  _235
REMARK   99  A    between atoms: _235  and  _236
REMARK  100  A    between atoms: _236  and  _237
REMARK  101  A    between atoms: _237  and  _238
REMARK  102  A    between atoms: _242  and  _244
REMARK  103  A    between atoms: _244  and  _245
REMARK  104  A    between atoms: _248  and  _250
REMARK  105  A    between atoms: _250  and  _251
REMARK  106  A    between atoms: _250  and  _253
REMARK  107  A    between atoms: _253  and  _254
REMARK  108  A    between atoms: _254  and  _255
REMARK  109  A    between atoms: _258  and  _260
REMARK  110  A    between atoms: _260  and  _261
REMARK  111  A    between atoms: _260  and  _263
REMARK  112  A    between atoms: _263  and  _264
REMARK  113  A    between atoms: _266  and  _268
REMARK  114  A    between atoms: _268  and  _269
REMARK  115  A    between atoms: _268  and  _271
REMARK  116  A    between atoms: _274  and  _276
REMARK  117  A    between atoms: _276  and  _277
REMARK  118  A    between atoms: _276  and  _279
REMARK  119  A    between atoms: _279  and  _280
REMARK  120  A    between atoms: _280  and  _281
REMARK  121  A    between atoms: _284  and  _286
REMARK  122  A    between atoms: _286  and  _287
REMARK  123  A    between atoms: _286  and  _289
REMARK  124  A    between atoms: _289  and  _290
REMARK  125  A    between atoms: _295  and  _297
REMARK  126  A    between atoms: _297  and  _298
REMARK  127  A    between atoms: _297  and  _300
REMARK  128  A    between atoms: _300  and  _301
REMARK  129  A    between atoms: _306  and  _308
REMARK  130  A    between atoms: _308  and  _309
REMARK  131  A    between atoms: _308  and  _311
REMARK  132  A    between atoms: _311  and  _312
REMARK  133  A    between atoms: _318  and  _320
REMARK  134  A    between atoms: _320  and  _321
REMARK  135  A    between atoms: _320  and  _323
REMARK  136  A    between atoms: _323  and  _324
REMARK  137  A    between atoms: _329  and  _330
REMARK  138  A    between atoms: _332  and  _334
REMARK  139  A    between atoms: _334  and  _335
REMARK  140  A    between atoms: _334  and  _337
REMARK  141  A    between atoms: _337  and  _338
REMARK  142  A    between atoms: _343  and  _344
REMARK  143  A    between atoms: _346  and  _348
REMARK  144  A    between atoms: _348  and  _349
REMARK  145  A    between atoms: _348  and  _351
REMARK  146  A    between atoms: _351  and  _352
REMARK  147  A    between atoms: _355  and  _357
REMARK  148  A    between atoms: _357  and  _358
REMARK  149  A    between atoms: _357  and  _360
REMARK  150  A    between atoms: _360  and  _361
REMARK  151  A    between atoms: _364  and  _366
REMARK  152  A    between atoms: _366  and  _367
REMARK  153  A    between atoms: _366  and  _369
REMARK  154  A    between atoms: _369  and  _370
REMARK  155  A    between atoms: _370  and  _371
REMARK  156  A    between atoms: _371  and  _372
REMARK  157  A    between atoms: _372  and  _373
REMARK  158  A    between atoms: _377  and  _379
REMARK  159  A    between atoms: _379  and  _380
REMARK  160  A    between atoms: _383  and  _385
REMARK  161  A    between atoms: _385  and  _386
REMARK  162  A    between atoms: _385  and  _388
REMARK  163  A    between atoms: _388  and  _389
REMARK  164  A    between atoms: _392  and  _394
REMARK  165  A    between atoms: _394  and  _395
REMARK  166  A    between atoms: _394  and  _397
REMARK  167  A    between atoms: _397  and  _398
REMARK  168  A    between atoms: _401  and  _403
REMARK  169  A    between atoms: _403  and  _404
REMARK  170  A    between atoms: _403  and  _406
REMARK  171  A    between atoms: _409  and  _411
REMARK  172  A    between atoms: _411  and  _412
REMARK  173  A    between atoms: _411  and  _414
REMARK  174  A    between atoms: _414  and  _415
REMARK  175  A    between atoms: _420  and  _422
REMARK  176  A    between atoms: _422  and  _423
REMARK  177  A    between atoms: _422  and  _425
REMARK  178  A    between atoms: _425  and  _426
REMARK  179  A    between atoms: _431  and  _433
REMARK  180  A    between atoms: _433  and  _434
REMARK  181  A    between atoms: _437  and  _438
REMARK  182  A    between atoms: _443  and  _445
REMARK  183  A    between atoms: _445  and  _446
REMARK  184  A    between atoms: _445  and  _448
REMARK  185  A    between atoms: _448  and  _449
REMARK  186  A    between atoms: _459  and  _461
REMARK  187  A    between atoms: _461  and  _462
REMARK  188  A    between atoms: _465  and  _467
REMARK  189  A    between atoms: _467  and  _468
REMARK  190  A    between atoms: _467  and  _470
REMARK  191  A    between atoms: _470  and  _471
REMARK  192  A    between atoms: _476  and  _477
REMARK  193  A    between atoms: _479  and  _481
REMARK  194  A    between atoms: _481  and  _482
REMARK  195  A    between atoms: _481  and  _484
REMARK  196  A    between atoms: _484  and  _485
REMARK  197  A    between atoms: _491  and  _493
REMARK  198  A    between atoms: _493  and  _494
REMARK  199  A    between atoms: _493  and  _496
REMARK  200  A    between atoms: _496  and  _497
REMARK  201  A    between atoms: _500  and  _502
REMARK  202  A    between atoms: _502  and  _503
REMARK  203  A    between atoms: _505  and  _507
REMARK  204  A    between atoms: _507  and  _508
REMARK  205  A    between atoms: _507  and  _510
REMARK  206  A    between atoms: _513  and  _515
REMARK  207  A    between atoms: _515  and  _516
REMARK  208  A    between atoms: _515  and  _518
REMARK  209  A    between atoms: _518  and  _519
REMARK  210  A    between atoms: _519  and  _520
REMARK  211  A    between atoms: _520  and  _521
REMARK  212  A    between atoms: _521  and  _522
REMARK  213  A    between atoms: _526  and  _528
REMARK  214  A    between atoms: _528  and  _529
REMARK  215  A    between atoms: _528  and  _531
REMARK  216  A    between atoms: _531  and  _532
REMARK  217  A    between atoms: _532  and  _533
REMARK  218  A    between atoms: _533  and  _534
REMARK  219  A    between atoms: _543  and  _545
REMARK  220  A    between atoms: _545  and  _546
REMARK  221  A    between atoms: _545  and  _548
REMARK  222  A    between atoms: _548  and  _549
REMARK  223  A    between atoms: _549  and  _550
REMARK  224  A    between atoms: _553  and  _555
REMARK  225  A    between atoms: _555  and  _556
REMARK  226  A    between atoms: _555  and  _558
REMARK  227  A    between atoms: _558  and  _559
REMARK  228  A    between atoms: _559  and  _560
REMARK  229  A    between atoms: _563  and  _564
REMARK  230  A    between atoms: _569  and  _571
REMARK  231  A    between atoms: _571  and  _572
REMARK  232  A    between atoms: _571  and  _574
REMARK  233  A    between atoms: _574  and  _575
REMARK  234  A    between atoms: _575  and  _576
REMARK  235  A    between atoms: _578  and  _580
REMARK  236  A    between atoms: _580  and  _581
REMARK  237  A    between atoms: _583  and  _585
REMARK  238  A    between atoms: _585  and  _586
REMARK  239  A    between atoms: _585  and  _588
REMARK  240  A    between atoms: _591  and  _593
REMARK  241  A    between atoms: _593  and  _594
REMARK  242  A    between atoms: _593  and  _596
REMARK  243  A    between atoms: _596  and  _597
REMARK  244  A    between atoms: _607  and  _609
REMARK  245  A    between atoms: _609  and  _610
REMARK  246  A    between atoms: _609  and  _612
REMARK  247  A    between atoms: _612  and  _613
REMARK  248  A    between atoms: _613  and  _614
REMARK  249  A    between atoms: _618  and  _619
REMARK  250  A    between atoms: _624  and  _626
REMARK  251  A    between atoms: _626  and  _627
REMARK  252  A    between atoms: _626  and  _629
REMARK  253  A    between atoms: _629  and  _630
REMARK  254  A    between atoms: _633  and  _635
REMARK  255  A    between atoms: _635  and  _636
REMARK  256  A    between atoms: _635  and  _638
REMARK  257  A    between atoms: _638  and  _639
REMARK  258  A    between atoms: _644  and  _646
REMARK  259  A    between atoms: _646  and  _647
REMARK  260  A    between atoms: _646  and  _649
REMARK  261  A    between atoms: _649  and  _650
REMARK                            x       y       z     vdW  Elec       q    Type
REMARK                         _______ _______ _______ _____ _____    ______ ____
ROOT
ATOM      1  O   HOH     1      11.968   2.636   9.517  0.00  0.00    +0.000 OA
ENDROOT
TORSDOF 0
REMARK  Name = ../refined-set-2016/2zym/2zym_pocket.pdb
REMARK  261 active torsions:
REMARK  status: ('A' for Active; 'I' for Inactive)
REMARK    1  A    between atoms: _1  and  _3
REMARK    2  A    between atoms: _3  and  _4
REMARK    3  A    between atoms: _3  and  _6
REMARK    4  A    between atoms: _6  and  _7
REMARK    5  A    between atoms: _7  and  _8
REMARK    6  A    between atoms: _11  and  _13
REMARK    7  A    between atoms: _13  and  _14
REMARK    8  A    between atoms: _13  and  _16
REMARK    9  A    between atoms: _16  and  _17
REMARK   10  A    between atoms: _22  and  _24
REMARK   11  A    between atoms: _24  and  _25
REMARK   12  A    between atoms: _28  and  _30
REMARK   13  A    between atoms: _30  and  _31
REMARK   14  A    between atoms: _30  and  _33
REMARK   15  A    between atoms: _33  and  _34
REMARK   16  A    between atoms: _37  and  _39
REMARK   17  A    between atoms: _39  and  _40
REMARK   18  A    between atoms: _39  and  _42
REMARK   19  A    between atoms: _42  and  _43
REMARK   20  A    between atoms: _43  and  _44
REMARK   21  A    between atoms: _49  and  _51
REMARK   22  A    between atoms: _51  and  _52
REMARK   23  A    between atoms: _51  and  _54
REMARK   24  A    between atoms: _57  and  _59
REMARK   25  A    between atoms: _59  and  _60
REMARK   26  A    between atoms: _63  and  _65
REMARK   27  A    between atoms: _65  and  _66
REMARK   28  A    between atoms: _65  and  _68
REMARK   29  A    between atoms: _68  and  _69
REMARK   30  A    between atoms: _72  and  _74
REMARK   31  A    between atoms: _74  and  _75
REMARK   32  A    between atoms: _74  and  _77
REMARK   33  A    between atoms: _77  and  _78
REMARK   34  A    between atoms: _81  and  _83
REMARK   35  A    between atoms: _83  and  _84
REMARK   36  A    between atoms: _83  and  _86
REMARK   37  A    between atoms: _86  and  _87
REMARK   38  A    between atoms: _87  and  _88
REMARK   39  A    between atoms: _88  and  _89
REMARK   40  A    between atoms: _89  and  _90
REMARK   41  A    between atoms: _94  and  _96
REMARK   42  A    between atoms: _96  and  _97
REMARK   43  A    between atoms: _96  and  _99
REMARK   44  A    between atoms: _99  and  _100
REMARK   45  A    between atoms: _100  and  _101
REMARK   46  A    between atoms: _106  and  _108
REMARK   47  A    between atoms: _108  and  _109
REMARK   48  A    between atoms: _108  and  _111
REMARK   49  A    between atoms: _111  and  _112
REMARK   50  A    between atoms: _112  and  _113
REMARK   51  A    between atoms: _118  and  _120
REMARK   52  A    between atoms: _120  and  _121
REMARK   53  A    between atoms: _120  and  _123
REMARK   54  A    between atoms: _123  and  _124
REMARK   55  A    between atoms: _124  and  _125
REMARK   56  A    between atoms: _128  and  _130
REMARK   57  A    between atoms: _130  and  _131
REMARK   58  A    between atoms: _130  and  _133
REMARK   59  A    between atoms: _133  and  _134
REMARK   60  A    between atoms: _134  and  _135
REMARK   61  A    between atoms: _135  and  _136
REMARK   62  A    between atoms: _136  and  _137
REMARK   63  A    between atoms: _141  and  _143
REMARK   64  A    between atoms: _143  and  _144
REMARK   65  A    between atoms: _143  and  _146
REMARK   66  A    between atoms: _146  and  _147
REMARK   67  A    between atoms: _150  and  _152
REMARK   68  A    between atoms: _152  and  _153
REMARK   69  A    between atoms: _152  and  _155
REMARK   70  A    between atoms: _155  and  _156
REMARK   71  A    between atoms: _167  and  _168
REMARK   72  A    between atoms: _173  and  _175
REMARK   73  A    between atoms: _175  and  _176
REMARK   74  A    between atoms: _175  and  _178
REMARK   75  A    between atoms: _178  and  _179
REMARK   76  A    between atoms: _184  and  _186
REMARK   77  A    between atoms: _186  and  _187
REMARK   78  A    between atoms: _186  and  _189
REMARK   79  A    between atoms: _189  and  _190
REMARK   80  A    between atoms: _193  and  _195
REMARK   81  A    between atoms: _195  and  _196
REMARK   82  A    between atoms: _195  and  _198
REMARK   83  A    between atoms: _198  and  _199
REMARK   84  A    between atoms: _199  and  _200
REMARK   85  A    between atoms: _200  and  _201
REMARK   86  A    between atoms: _210  and  _212
REMARK   87  A    between atoms: _212  and  _213
REMARK   88  A    between atoms: _212  and  _215
REMARK   89  A    between atoms: _215  and  _216
REMARK   90  A    between atoms: _219  and  _221
REMARK   91  A    between atoms: _221  and  _222
REMARK   92  A    between atoms: _221  and  _224
REMARK   93  A    between atoms: _224  and  _225
REMARK   94  A    between atoms: _225  and  _226
REMARK   95  A    between atoms: _229  and  _231
REMARK   96  A    between atoms: _231  and  _232
REMARK   97  A    between atoms: _231  and  _234
REMARK   98  A    between atoms: _234  and  _235
REMARK   99  A    between atoms: _235  and  _236
REMARK  100  A    between atoms: _236  and  _237
REMARK  101  A    between atoms: _237  and  _238
REMARK  102  A    between atoms: _242  and  _244
REMARK  103  A    between atoms: _244  and  _245
REMARK  104  A    between atoms: _248  and  _250
REMARK  105  A    between atoms: _250  and  _251
REMARK  106  A    between atoms: _250  and  _253
REMARK  107  A    between atoms: _253  and  _254
REMARK  108  A    between atoms: _254  and  _255
REMARK  109  A    between atoms: _258  and  _260
REMARK  110  A    between atoms: _260  and  _261
REMARK  111  A    between atoms: _260  and  _263
REMARK  112  A    between atoms: _263  and  _264
REMARK  113  A    between atoms: _266  and  _268
REMARK  114  A    between atoms: _268  and  _269
REMARK  115  A    between atoms: _268  and  _271
REMARK  116  A    between atoms: _274  and  _276
REMARK  117  A    between atoms: _276  and  _277
REMARK  118  A    between atoms: _276  and  _279
REMARK  119  A    between atoms: _279  and  _280
REMARK  120  A    between atoms: _280  and  _281
REMARK  121  A    between atoms: _284  and  _286
REMARK  122  A    between atoms: _286  and  _287
REMARK  123  A    between atoms: _286  and  _289
REMARK  124  A    between atoms: _289  and  _290
REMARK  125  A    between atoms: _295  and  _297
REMARK  126  A    between atoms: _297  and  _298
REMARK  127  A    between atoms: _297  and  _300
REMARK  128  A    between atoms: _300  and  _301
REMARK  129  A    between atoms: _306  and  _308
REMARK  130  A    between atoms: _308  and  _309
REMARK  131  A    between atoms: _308  and  _311
REMARK  132  A    between atoms: _311  and  _312
REMARK  133  A    between atoms: _318  and  _320
REMARK  134  A    between atoms: _320  and  _321
REMARK  135  A    between atoms: _320  and  _323
REMARK  136  A    between atoms: _323  and  _324
REMARK  137  A    between atoms: _329  and  _330
REMARK  138  A    between atoms: _332  and  _334
REMARK  139  A    between atoms: _334  and  _335
REMARK  140  A    between atoms: _334  and  _337
REMARK  141  A    between atoms: _337  and  _338
REMARK  142  A    between atoms: _343  and  _344
REMARK  143  A    between atoms: _346  and  _348
REMARK  144  A    between atoms: _348  and  _349
REMARK  145  A    between atoms: _348  and  _351
REMARK  146  A    between atoms: _351  and  _352
REMARK  147  A    between atoms: _355  and  _357
REMARK  148  A    between atoms: _357  and  _358
REMARK  149  A    between atoms: _357  and  _360
REMARK  150  A    between atoms: _360  and  _361
REMARK  151  A    between atoms: _364  and  _366
REMARK  152  A    between atoms: _366  and  _367
REMARK  153  A    between atoms: _366  and  _369
REMARK  154  A    between atoms: _369  and  _370
REMARK  155  A    between atoms: _370  and  _371
REMARK  156  A    between atoms: _371  and  _372
REMARK  157  A    between atoms: _372  and  _373
REMARK  158  A    between atoms: _377  and  _379
REMARK  159  A    between atoms: _379  and  _380
REMARK  160  A    between atoms: _383  and  _385
REMARK  161  A    between atoms: _385  and  _386
REMARK  162  A    between atoms: _385  and  _388
REMARK  163  A    between atoms: _388  and  _389
REMARK  164  A    between atoms: _392  and  _394
REMARK  165  A    between atoms: _394  and  _395
REMARK  166  A    between atoms: _394  and  _397
REMARK  167  A    between atoms: _397  and  _398
REMARK  168  A    between atoms: _401  and  _403
REMARK  169  A    between atoms: _403  and  _404
REMARK  170  A    between atoms: _403  and  _406
REMARK  171  A    between atoms: _409  and  _411
REMARK  172  A    between atoms: _411  and  _412
REMARK  173  A    between atoms: _411  and  _414
REMARK  174  A    between atoms: _414  and  _415
REMARK  175  A    between atoms: _420  and  _422
REMARK  176  A    between atoms: _422  and  _423
REMARK  177  A    between atoms: _422  and  _425
REMARK  178  A    between atoms: _425  and  _426
REMARK  179  A    between atoms: _431  and  _433
REMARK  180  A    between atoms: _433  and  _434
REMARK  181  A    between atoms: _437  and  _438
REMARK  182  A    between atoms: _443  and  _445
REMARK  183  A    between atoms: _445  and  _446
REMARK  184  A    between atoms: _445  and  _448
REMARK  185  A    between atoms: _448  and  _449
REMARK  186  A    between atoms: _459  and  _461
REMARK  187  A    between atoms: _461  and  _462
REMARK  188  A    between atoms: _465  and  _467
REMARK  189  A    between atoms: _467  and  _468
REMARK  190  A    between atoms: _467  and  _470
REMARK  191  A    between atoms: _470  and  _471
REMARK  192  A    between atoms: _476  and  _477
REMARK  193  A    between atoms: _479  and  _481
REMARK  194  A    between atoms: _481  and  _482
REMARK  195  A    between atoms: _481  and  _484
REMARK  196  A    between atoms: _484  and  _485
REMARK  197  A    between atoms: _491  and  _493
REMARK  198  A    between atoms: _493  and  _494
REMARK  199  A    between atoms: _493  and  _496
REMARK  200  A    between atoms: _496  and  _497
REMARK  201  A    between atoms: _500  and  _502
REMARK  202  A    between atoms: _502  and  _503
REMARK  203  A    between atoms: _505  and  _507
REMARK  204  A    between atoms: _507  and  _508
REMARK  205  A    between atoms: _507  and  _510
REMARK  206  A    between atoms: _513  and  _515
REMARK  207  A    between atoms: _515  and  _516
REMARK  208  A    between atoms: _515  and  _518
REMARK  209  A    between atoms: _518  and  _519
REMARK  210  A    between atoms: _519  and  _520
REMARK  211  A    between atoms: _520  and  _521
REMARK  212  A    between atoms: _521  and  _522
REMARK  213  A    between atoms: _526  and  _528
REMARK  214  A    between atoms: _528  and  _529
REMARK  215  A    between atoms: _528  and  _531
REMARK  216  A    between atoms: _531  and  _532
REMARK  217  A    between atoms: _532  and  _533
REMARK  218  A    between atoms: _533  and  _534
REMARK  219  A    between atoms: _543  and  _545
REMARK  220  A    between atoms: _545  and  _546
REMARK  221  A    between atoms: _545  and  _548
REMARK  222  A    between atoms: _548  and  _549
REMARK  223  A    between atoms: _549  and  _550
REMARK  224  A    between atoms: _553  and  _555
REMARK  225  A    between atoms: _555  and  _556
REMARK  226  A    between atoms: _555  and  _558
REMARK  227  A    between atoms: _558  and  _559
REMARK  228  A    between atoms: _559  and  _560
REMARK  229  A    between atoms: _563  and  _564
REMARK  230  A    between atoms: _569  and  _571
REMARK  231  A    between atoms: _571  and  _572
REMARK  232  A    between atoms: _571  and  _574
REMARK  233  A    between atoms: _574  and  _575
REMARK  234  A    between atoms: _575  and  _576
REMARK  235  A    between atoms: _578  and  _580
REMARK  236  A    between atoms: _580  and  _581
REMARK  237  A    between atoms: _583  and  _585
REMARK  238  A    between atoms: _585  and  _586
REMARK  239  A    between atoms: _585  and  _588
REMARK  240  A    between atoms: _591  and  _593
REMARK  241  A    between atoms: _593  and  _594
REMARK  242  A    between atoms: _593  and  _596
REMARK  243  A    between atoms: _596  and  _597
REMARK  244  A    between atoms: _607  and  _609
REMARK  245  A    between atoms: _609  and  _610
REMARK  246  A    between atoms: _609  and  _612
REMARK  247  A    between atoms: _612  and  _613
REMARK  248  A    between atoms: _613  and  _614
REMARK  249  A    between atoms: _618  and  _619
REMARK  250  A    between atoms: _624  and  _626
REMARK  251  A    between atoms: _626  and  _627
REMARK  252  A    between atoms: _626  and  _629
REMARK  253  A    between atoms: _629  and  _630
REMARK  254  A    between atoms: _633  and  _635
REMARK  255  A    between atoms: _635  and  _636
REMARK  256  A    between atoms: _635  and  _638
REMARK  257  A    between atoms: _638  and  _639
REMARK  258  A    between atoms: _644  and  _646
REMARK  259  A    between atoms: _646  and  _647
REMARK  260  A    between atoms: _646  and  _649
REMARK  261  A    between atoms: _649  and  _650
REMARK                            x       y       z     vdW  Elec       q    Type
REMARK                         _______ _______ _______ _____ _____    ______ ____
ROOT
ATOM      1  O   HOH     1      10.536   5.462   9.481  0.00  0.00    +0.000 OA
ENDROOT
TORSDOF 0
REMARK  Name = ../refined-set-2016/2zym/2zym_pocket.pdb
REMARK  261 active torsions:
REMARK  status: ('A' for Active; 'I' for Inactive)
REMARK    1  A    between atoms: _1  and  _3
REMARK    2  A    between atoms: _3  and  _4
REMARK    3  A    between atoms: _3  and  _6
REMARK    4  A    between atoms: _6  and  _7
REMARK    5  A    between atoms: _7  and  _8
REMARK    6  A    between atoms: _11  and  _13
REMARK    7  A    between atoms: _13  and  _14
REMARK    8  A    between atoms: _13  and  _16
REMARK    9  A    between atoms: _16  and  _17
REMARK   10  A    between atoms: _22  and  _24
REMARK   11  A    between atoms: _24  and  _25
REMARK   12  A    between atoms: _28  and  _30
REMARK   13  A    between atoms: _30  and  _31
REMARK   14  A    between atoms: _30  and  _33
REMARK   15  A    between atoms: _33  and  _34
REMARK   16  A    between atoms: _37  and  _39
REMARK   17  A    between atoms: _39  and  _40
REMARK   18  A    between atoms: _39  and  _42
REMARK   19  A    between atoms: _42  and  _43
REMARK   20  A    between atoms: _43  and  _44
REMARK   21  A    between atoms: _49  and  _51
REMARK   22  A    between atoms: _51  and  _52
REMARK   23  A    between atoms: _51  and  _54
REMARK   24  A    between atoms: _57  and  _59
REMARK   25  A    between atoms: _59  and  _60
REMARK   26  A    between atoms: _63  and  _65
REMARK   27  A    between atoms: _65  and  _66
REMARK   28  A    between atoms: _65  and  _68
REMARK   29  A    between atoms: _68  and  _69
REMARK   30  A    between atoms: _72  and  _74
REMARK   31  A    between atoms: _74  and  _75
REMARK   32  A    between atoms: _74  and  _77
REMARK   33  A    between atoms: _77  and  _78
REMARK   34  A    between atoms: _81  and  _83
REMARK   35  A    between atoms: _83  and  _84
REMARK   36  A    between atoms: _83  and  _86
REMARK   37  A    between atoms: _86  and  _87
REMARK   38  A    between atoms: _87  and  _88
REMARK   39  A    between atoms: _88  and  _89
REMARK   40  A    between atoms: _89  and  _90
REMARK   41  A    between atoms: _94  and  _96
REMARK   42  A    between atoms: _96  and  _97
REMARK   43  A    between atoms: _96  and  _99
REMARK   44  A    between atoms: _99  and  _100
REMARK   45  A    between atoms: _100  and  _101
REMARK   46  A    between atoms: _106  and  _108
REMARK   47  A    between atoms: _108  and  _109
REMARK   48  A    between atoms: _108  and  _111
REMARK   49  A    between atoms: _111  and  _112
REMARK   50  A    between atoms: _112  and  _113
REMARK   51  A    between atoms: _118  and  _120
REMARK   52  A    between atoms: _120  and  _121
REMARK   53  A    between atoms: _120  and  _123
REMARK   54  A    between atoms: _123  and  _124
REMARK   55  A    between atoms: _124  and  _125
REMARK   56  A    between atoms: _128  and  _130
REMARK   57  A    between atoms: _130  and  _131
REMARK   58  A    between atoms: _130  and  _133
REMARK   59  A    between atoms: _133  and  _134
REMARK   60  A    between atoms: _134  and  _135
REMARK   61  A    between atoms: _135  and  _136
REMARK   62  A    between atoms: _136  and  _137
REMARK   63  A    between atoms: _141  and  _143
REMARK   64  A    between atoms: _143  and  _144
REMARK   65  A    between atoms: _143  and  _146
REMARK   66  A    between atoms: _146  and  _147
REMARK   67  A    between atoms: _150  and  _152
REMARK   68  A    between atoms: _152  and  _153
REMARK   69  A    between atoms: _152  and  _155
REMARK   70  A    between atoms: _155  and  _156
REMARK   71  A    between atoms: _167  and  _168
REMARK   72  A    between atoms: _173  and  _175
REMARK   73  A    between atoms: _175  and  _176
REMARK   74  A    between atoms: _175  and  _178
REMARK   75  A    between atoms: _178  and  _179
REMARK   76  A    between atoms: _184  and  _186
REMARK   77  A    between atoms: _186  and  _187
REMARK   78  A    between atoms: _186  and  _189
REMARK   79  A    between atoms: _189  and  _190
REMARK   80  A    between atoms: _193  and  _195
REMARK   81  A    between atoms: _195  and  _196
REMARK   82  A    between atoms: _195  and  _198
REMARK   83  A    between atoms: _198  and  _199
REMARK   84  A    between atoms: _199  and  _200
REMARK   85  A    between atoms: _200  and  _201
REMARK   86  A    between atoms: _210  and  _212
REMARK   87  A    between atoms: _212  and  _213
REMARK   88  A    between atoms: _212  and  _215
REMARK   89  A    between atoms: _215  and  _216
REMARK   90  A    between atoms: _219  and  _221
REMARK   91  A    between atoms: _221  and  _222
REMARK   92  A    between atoms: _221  and  _224
REMARK   93  A    between atoms: _224  and  _225
REMARK   94  A    between atoms: _225  and  _226
REMARK   95  A    between atoms: _229  and  _231
REMARK   96  A    between atoms: _231  and  _232
REMARK   97  A    between atoms: _231  and  _234
REMARK   98  A    between atoms: _234  and  _235
REMARK   99  A    between atoms: _235  and  _236
REMARK  100  A    between atoms: _236  and  _237
REMARK  101  A    between atoms: _237  and  _238
REMARK  102  A    between atoms: _242  and  _244
REMARK  103  A    between atoms: _244  and  _245
REMARK  104  A    between atoms: _248  and  _250
REMARK  105  A    between atoms: _250  and  _251
REMARK  106  A    between atoms: _250  and  _253
REMARK  107  A    between atoms: _253  and  _254
REMARK  108  A    between atoms: _254  and  _255
REMARK  109  A    between atoms: _258  and  _260
REMARK  110  A    between atoms: _260  and  _261
REMARK  111  A    between atoms: _260  and  _263
REMARK  112  A    between atoms: _263  and  _264
REMARK  113  A    between atoms: _266  and  _268
REMARK  114  A    between atoms: _268  and  _269
REMARK  115  A    between atoms: _268  and  _271
REMARK  116  A    between atoms: _274  and  _276
REMARK  117  A    between atoms: _276  and  _277
REMARK  118  A    between atoms: _276  and  _279
REMARK  119  A    between atoms: _279  and  _280
REMARK  120  A    between atoms: _280  and  _281
REMARK  121  A    between atoms: _284  and  _286
REMARK  122  A    between atoms: _286  and  _287
REMARK  123  A    between atoms: _286  and  _289
REMARK  124  A    between atoms: _289  and  _290
REMARK  125  A    between atoms: _295  and  _297
REMARK  126  A    between atoms: _297  and  _298
REMARK  127  A    between atoms: _297  and  _300
REMARK  128  A    between atoms: _300  and  _301
REMARK  129  A    between atoms: _306  and  _308
REMARK  130  A    between atoms: _308  and  _309
REMARK  131  A    between atoms: _308  and  _311
REMARK  132  A    between atoms: _311  and  _312
REMARK  133  A    between atoms: _318  and  _320
REMARK  134  A    between atoms: _320  and  _321
REMARK  135  A    between atoms: _320  and  _323
REMARK  136  A    between atoms: _323  and  _324
REMARK  137  A    between atoms: _329  and  _330
REMARK  138  A    between atoms: _332  and  _334
REMARK  139  A    between atoms: _334  and  _335
REMARK  140  A    between atoms: _334  and  _337
REMARK  141  A    between atoms: _337  and  _338
REMARK  142  A    between atoms: _343  and  _344
REMARK  143  A    between atoms: _346  and  _348
REMARK  144  A    between atoms: _348  and  _349
REMARK  145  A    between atoms: _348  and  _351
REMARK  146  A    between atoms: _351  and  _352
REMARK  147  A    between atoms: _355  and  _357
REMARK  148  A    between atoms: _357  and  _358
REMARK  149  A    between atoms: _357  and  _360
REMARK  150  A    between atoms: _360  and  _361
REMARK  151  A    between atoms: _364  and  _366
REMARK  152  A    between atoms: _366  and  _367
REMARK  153  A    between atoms: _366  and  _369
REMARK  154  A    between atoms: _369  and  _370
REMARK  155  A    between atoms: _370  and  _371
REMARK  156  A    between atoms: _371  and  _372
REMARK  157  A    between atoms: _372  and  _373
REMARK  158  A    between atoms: _377  and  _379
REMARK  159  A    between atoms: _379  and  _380
REMARK  160  A    between atoms: _383  and  _385
REMARK  161  A    between atoms: _385  and  _386
REMARK  162  A    between atoms: _385  and  _388
REMARK  163  A    between atoms: _388  and  _389
REMARK  164  A    between atoms: _392  and  _394
REMARK  165  A    between atoms: _394  and  _395
REMARK  166  A    between atoms: _394  and  _397
REMARK  167  A    between atoms: _397  and  _398
REMARK  168  A    between atoms: _401  and  _403
REMARK  169  A    between atoms: _403  and  _404
REMARK  170  A    between atoms: _403  and  _406
REMARK  171  A    between atoms: _409  and  _411
REMARK  172  A    between atoms: _411  and  _412
REMARK  173  A    between atoms: _411  and  _414
REMARK  174  A    between atoms: _414  and  _415
REMARK  175  A    between atoms: _420  and  _422
REMARK  176  A    between atoms: _422  and  _423
REMARK  177  A    between atoms: _422  and  _425
REMARK  178  A    between atoms: _425  and  _426
REMARK  179  A    between atoms: _431  and  _433
REMARK  180  A    between atoms: _433  and  _434
REMARK  181  A    between atoms: _437  and  _438
REMARK  182  A    between atoms: _443  and  _445
REMARK  183  A    between atoms: _445  and  _446
REMARK  184  A    between atoms: _445  and  _448
REMARK  185  A    between atoms: _448  and  _449
REMARK  186  A    between atoms: _459  and  _461
REMARK  187  A    between atoms: _461  and  _462
REMARK  188  A    between atoms: _465  and  _467
REMARK  189  A    between atoms: _467  and  _468
REMARK  190  A    between atoms: _467  and  _470
REMARK  191  A    between atoms: _470  and  _471
REMARK  192  A    between atoms: _476  and  _477
REMARK  193  A    between atoms: _479  and  _481
REMARK  194  A    between atoms: _481  and  _482
REMARK  195  A    between atoms: _481  and  _484
REMARK  196  A    between atoms: _484  and  _485
REMARK  197  A    between atoms: _491  and  _493
REMARK  198  A    between atoms: _493  and  _494
REMARK  199  A    between atoms: _493  and  _496
REMARK  200  A    between atoms: _496  and  _497
REMARK  201  A    between atoms: _500  and  _502
REMARK  202  A    between atoms: _502  and  _503
REMARK  203  A    between atoms: _505  and  _507
REMARK  204  A    between atoms: _507  and  _508
REMARK  205  A    between atoms: _507  and  _510
REMARK  206  A    between atoms: _513  and  _515
REMARK  207  A    between atoms: _515  and  _516
REMARK  208  A    between atoms: _515  and  _518
REMARK  209  A    between atoms: _518  and  _519
REMARK  210  A    between atoms: _519  and  _520
REMARK  211  A    between atoms: _520  and  _521
REMARK  212  A    between atoms: _521  and  _522
REMARK  213  A    between atoms: _526  and  _528
REMARK  214  A    between atoms: _528  and  _529
REMARK  215  A    between atoms: _528  and  _531
REMARK  216  A    between atoms: _531  and  _532
REMARK  217  A    between atoms: _532  and  _533
REMARK  218  A    between atoms: _533  and  _534
REMARK  219  A    between atoms: _543  and  _545
REMARK  220  A    between atoms: _545  and  _546
REMARK  221  A    between atoms: _545  and  _548
REMARK  222  A    between atoms: _548  and  _549
REMARK  223  A    between atoms: _549  and  _550
REMARK  224  A    between atoms: _553  and  _555
REMARK  225  A    between atoms: _555  and  _556
REMARK  226  A    between atoms: _555  and  _558
REMARK  227  A    between atoms: _558  and  _559
REMARK  228  A    between atoms: _559  and  _560
REMARK  229  A    between atoms: _563  and  _564
REMARK  230  A    between atoms: _569  and  _571
REMARK  231  A    between atoms: _571  and  _572
REMARK  232  A    between atoms: _571  and  _574
REMARK  233  A    between atoms: _574  and  _575
REMARK  234  A    between atoms: _575  and  _576
REMARK  235  A    between atoms: _578  and  _580
REMARK  236  A    between atoms: _580  and  _581
REMARK  237  A    between atoms: _583  and  _585
REMARK  238  A    between atoms: _585  and  _586
REMARK  239  A    between atoms: _585  and  _588
REMARK  240  A    between atoms: _591  and  _593
REMARK  241  A    between atoms: _593  and  _594
REMARK  242  A    between atoms: _593  and  _596
REMARK  243  A    between atoms: _596  and  _597
REMARK  244  A    between atoms: _607  and  _609
REMARK  245  A    between atoms: _609  and  _610
REMARK  246  A    between atoms: _609  and  _612
REMARK  247  A    between atoms: _612  and  _613
REMARK  248  A    between atoms: _613  and  _614
REMARK  249  A    between atoms: _618  and  _619
REMARK  250  A    between atoms: _624  and  _626
REMARK  251  A    between atoms: _626  and  _627
REMARK  252  A    between atoms: _626  and  _629
REMARK  253  A    between atoms: _629  and  _630
REMARK  254  A    between atoms: _633  and  _635
REMARK  255  A    between atoms: _635  and  _636
REMARK  256  A    between atoms: _635  and  _638
REMARK  257  A    between atoms: _638  and  _639
REMARK  258  A    between atoms: _644  and  _646
REMARK  259  A    between atoms: _646  and  _647
REMARK  260  A    between atoms: _646  and  _649
REMARK  261  A    between atoms: _649  and  _650
REMARK                            x       y       z     vdW  Elec       q    Type
REMARK                         _______ _______ _______ _____ _____    ______ ____
ROOT
ATOM      1  O   HOH     1      12.536  -3.281  10.870  0.00  0.00    +0.000 OA
ENDROOT
TORSDOF 0
REMARK  Name = ../refined-set-2016/2zym/2zym_pocket.pdb
REMARK  261 active torsions:
REMARK  status: ('A' for Active; 'I' for Inactive)
REMARK    1  A    between atoms: _1  and  _3
REMARK    2  A    between atoms: _3  and  _4
REMARK    3  A    between atoms: _3  and  _6
REMARK    4  A    between atoms: _6  and  _7
REMARK    5  A    between atoms: _7  and  _8
REMARK    6  A    between atoms: _11  and  _13
REMARK    7  A    between atoms: _13  and  _14
REMARK    8  A    between atoms: _13  and  _16
REMARK    9  A    between atoms: _16  and  _17
REMARK   10  A    between atoms: _22  and  _24
REMARK   11  A    between atoms: _24  and  _25
REMARK   12  A    between atoms: _28  and  _30
REMARK   13  A    between atoms: _30  and  _31
REMARK   14  A    between atoms: _30  and  _33
REMARK   15  A    between atoms: _33  and  _34
REMARK   16  A    between atoms: _37  and  _39
REMARK   17  A    between atoms: _39  and  _40
REMARK   18  A    between atoms: _39  and  _42
REMARK   19  A    between atoms: _42  and  _43
REMARK   20  A    between atoms: _43  and  _44
REMARK   21  A    between atoms: _49  and  _51
REMARK   22  A    between atoms: _51  and  _52
REMARK   23  A    between atoms: _51  and  _54
REMARK   24  A    between atoms: _57  and  _59
REMARK   25  A    between atoms: _59  and  _60
REMARK   26  A    between atoms: _63  and  _65
REMARK   27  A    between atoms: _65  and  _66
REMARK   28  A    between atoms: _65  and  _68
REMARK   29  A    between atoms: _68  and  _69
REMARK   30  A    between atoms: _72  and  _74
REMARK   31  A    between atoms: _74  and  _75
REMARK   32  A    between atoms: _74  and  _77
REMARK   33  A    between atoms: _77  and  _78
REMARK   34  A    between atoms: _81  and  _83
REMARK   35  A    between atoms: _83  and  _84
REMARK   36  A    between atoms: _83  and  _86
REMARK   37  A    between atoms: _86  and  _87
REMARK   38  A    between atoms: _87  and  _88
REMARK   39  A    between atoms: _88  and  _89
REMARK   40  A    between atoms: _89  and  _90
REMARK   41  A    between atoms: _94  and  _96
REMARK   42  A    between atoms: _96  and  _97
REMARK   43  A    between atoms: _96  and  _99
REMARK   44  A    between atoms: _99  and  _100
REMARK   45  A    between atoms: _100  and  _101
REMARK   46  A    between atoms: _106  and  _108
REMARK   47  A    between atoms: _108  and  _109
REMARK   48  A    between atoms: _108  and  _111
REMARK   49  A    between atoms: _111  and  _112
REMARK   50  A    between atoms: _112  and  _113
REMARK   51  A    between atoms: _118  and  _120
REMARK   52  A    between atoms: _120  and  _121
REMARK   53  A    between atoms: _120  and  _123
REMARK   54  A    between atoms: _123  and  _124
REMARK   55  A    between atoms: _124  and  _125
REMARK   56  A    between atoms: _128  and  _130
REMARK   57  A    between atoms: _130  and  _131
REMARK   58  A    between atoms: _130  and  _133
REMARK   59  A    between atoms: _133  and  _134
REMARK   60  A    between atoms: _134  and  _135
REMARK   61  A    between atoms: _135  and  _136
REMARK   62  A    between atoms: _136  and  _137
REMARK   63  A    between atoms: _141  and  _143
REMARK   64  A    between atoms: _143  and  _144
REMARK   65  A    between atoms: _143  and  _146
REMARK   66  A    between atoms: _146  and  _147
REMARK   67  A    between atoms: _150  and  _152
REMARK   68  A    between atoms: _152  and  _153
REMARK   69  A    between atoms: _152  and  _155
REMARK   70  A    between atoms: _155  and  _156
REMARK   71  A    between atoms: _167  and  _168
REMARK   72  A    between atoms: _173  and  _175
REMARK   73  A    between atoms: _175  and  _176
REMARK   74  A    between atoms: _175  and  _178
REMARK   75  A    between atoms: _178  and  _179
REMARK   76  A    between atoms: _184  and  _186
REMARK   77  A    between atoms: _186  and  _187
REMARK   78  A    between atoms: _186  and  _189
REMARK   79  A    between atoms: _189  and  _190
REMARK   80  A    between atoms: _193  and  _195
REMARK   81  A    between atoms: _195  and  _196
REMARK   82  A    between atoms: _195  and  _198
REMARK   83  A    between atoms: _198  and  _199
REMARK   84  A    between atoms: _199  and  _200
REMARK   85  A    between atoms: _200  and  _201
REMARK   86  A    between atoms: _210  and  _212
REMARK   87  A    between atoms: _212  and  _213
REMARK   88  A    between atoms: _212  and  _215
REMARK   89  A    between atoms: _215  and  _216
REMARK   90  A    between atoms: _219  and  _221
REMARK   91  A    between atoms: _221  and  _222
REMARK   92  A    between atoms: _221  and  _224
REMARK   93  A    between atoms: _224  and  _225
REMARK   94  A    between atoms: _225  and  _226
REMARK   95  A    between atoms: _229  and  _231
REMARK   96  A    between atoms: _231  and  _232
REMARK   97  A    between atoms: _231  and  _234
REMARK   98  A    between atoms: _234  and  _235
REMARK   99  A    between atoms: _235  and  _236
REMARK  100  A    between atoms: _236  and  _237
REMARK  101  A    between atoms: _237  and  _238
REMARK  102  A    between atoms: _242  and  _244
REMARK  103  A    between atoms: _244  and  _245
REMARK  104  A    between atoms: _248  and  _250
REMARK  105  A    between atoms: _250  and  _251
REMARK  106  A    between atoms: _250  and  _253
REMARK  107  A    between atoms: _253  and  _254
REMARK  108  A    between atoms: _254  and  _255
REMARK  109  A    between atoms: _258  and  _260
REMARK  110  A    between atoms: _260  and  _261
REMARK  111  A    between atoms: _260  and  _263
REMARK  112  A    between atoms: _263  and  _264
REMARK  113  A    between atoms: _266  and  _268
REMARK  114  A    between atoms: _268  and  _269
REMARK  115  A    between atoms: _268  and  _271
REMARK  116  A    between atoms: _274  and  _276
REMARK  117  A    between atoms: _276  and  _277
REMARK  118  A    between atoms: _276  and  _279
REMARK  119  A    between atoms: _279  and  _280
REMARK  120  A    between atoms: _280  and  _281
REMARK  121  A    between atoms: _284  and  _286
REMARK  122  A    between atoms: _286  and  _287
REMARK  123  A    between atoms: _286  and  _289
REMARK  124  A    between atoms: _289  and  _290
REMARK  125  A    between atoms: _295  and  _297
REMARK  126  A    between atoms: _297  and  _298
REMARK  127  A    between atoms: _297  and  _300
REMARK  128  A    between atoms: _300  and  _301
REMARK  129  A    between atoms: _306  and  _308
REMARK  130  A    between atoms: _308  and  _309
REMARK  131  A    between atoms: _308  and  _311
REMARK  132  A    between atoms: _311  and  _312
REMARK  133  A    between atoms: _318  and  _320
REMARK  134  A    between atoms: _320  and  _321
REMARK  135  A    between atoms: _320  and  _323
REMARK  136  A    between atoms: _323  and  _324
REMARK  137  A    between atoms: _329  and  _330
REMARK  138  A    between atoms: _332  and  _334
REMARK  139  A    between atoms: _334  and  _335
REMARK  140  A    between atoms: _334  and  _337
REMARK  141  A    between atoms: _337  and  _338
REMARK  142  A    between atoms: _343  and  _344
REMARK  143  A    between atoms: _346  and  _348
REMARK  144  A    between atoms: _348  and  _349
REMARK  145  A    between atoms: _348  and  _351
REMARK  146  A    between atoms: _351  and  _352
REMARK  147  A    between atoms: _355  and  _357
REMARK  148  A    between atoms: _357  and  _358
REMARK  149  A    between atoms: _357  and  _360
REMARK  150  A    between atoms: _360  and  _361
REMARK  151  A    between atoms: _364  and  _366
REMARK  152  A    between atoms: _366  and  _367
REMARK  153  A    between atoms: _366  and  _369
REMARK  154  A    between atoms: _369  and  _370
REMARK  155  A    between atoms: _370  and  _371
REMARK  156  A    between atoms: _371  and  _372
REMARK  157  A    between atoms: _372  and  _373
REMARK  158  A    between atoms: _377  and  _379
REMARK  159  A    between atoms: _379  and  _380
REMARK  160  A    between atoms: _383  and  _385
REMARK  161  A    between atoms: _385  and  _386
REMARK  162  A    between atoms: _385  and  _388
REMARK  163  A    between atoms: _388  and  _389
REMARK  164  A    between atoms: _392  and  _394
REMARK  165  A    between atoms: _394  and  _395
REMARK  166  A    between atoms: _394  and  _397
REMARK  167  A    between atoms: _397  and  _398
REMARK  168  A    between atoms: _401  and  _403
REMARK  169  A    between atoms: _403  and  _404
REMARK  170  A    between atoms: _403  and  _406
REMARK  171  A    between atoms: _409  and  _411
REMARK  172  A    between atoms: _411  and  _412
REMARK  173  A    between atoms: _411  and  _414
REMARK  174  A    between atoms: _414  and  _415
REMARK  175  A    between atoms: _420  and  _422
REMARK  176  A    between atoms: _422  and  _423
REMARK  177  A    between atoms: _422  and  _425
REMARK  178  A    between atoms: _425  and  _426
REMARK  179  A    between atoms: _431  and  _433
REMARK  180  A    between atoms: _433  and  _434
REMARK  181  A    between atoms: _437  and  _438
REMARK  182  A    between atoms: _443  and  _445
REMARK  183  A    between atoms: _445  and  _446
REMARK  184  A    between atoms: _445  and  _448
REMARK  185  A    between atoms: _448  and  _449
REMARK  186  A    between atoms: _459  and  _461
REMARK  187  A    between atoms: _461  and  _462
REMARK  188  A    between atoms: _465  and  _467
REMARK  189  A    between atoms: _467  and  _468
REMARK  190  A    between atoms: _467  and  _470
REMARK  191  A    between atoms: _470  and  _471
REMARK  192  A    between atoms: _476  and  _477
REMARK  193  A    between atoms: _479  and  _481
REMARK  194  A    between atoms: _481  and  _482
REMARK  195  A    between atoms: _481  and  _484
REMARK  196  A    between atoms: _484  and  _485
REMARK  197  A    between atoms: _491  and  _493
REMARK  198  A    between atoms: _493  and  _494
REMARK  199  A    between atoms: _493  and  _496
REMARK  200  A    between atoms: _496  and  _497
REMARK  201  A    between atoms: _500  and  _502
REMARK  202  A    between atoms: _502  and  _503
REMARK  203  A    between atoms: _505  and  _507
REMARK  204  A    between atoms: _507  and  _508
REMARK  205  A    between atoms: _507  and  _510
REMARK  206  A    between atoms: _513  and  _515
REMARK  207  A    between atoms: _515  and  _516
REMARK  208  A    between atoms: _515  and  _518
REMARK  209  A    between atoms: _518  and  _519
REMARK  210  A    between atoms: _519  and  _520
REMARK  211  A    between atoms: _520  and  _521
REMARK  212  A    between atoms: _521  and  _522
REMARK  213  A    between atoms: _526  and  _528
REMARK  214  A    between atoms: _528  and  _529
REMARK  215  A    between atoms: _528  and  _531
REMARK  216  A    between atoms: _531  and  _532
REMARK  217  A    between atoms: _532  and  _533
REMARK  218  A    between atoms: _533  and  _534
REMARK  219  A    between atoms: _543  and  _545
REMARK  220  A    between atoms: _545  and  _546
REMARK  221  A    between atoms: _545  and  _548
REMARK  222  A    between atoms: _548  and  _549
REMARK  223  A    between atoms: _549  and  _550
REMARK  224  A    between atoms: _553  and  _555
REMARK  225  A    between atoms: _555  and  _556
REMARK  226  A    between atoms: _555  and  _558
REMARK  227  A    between atoms: _558  and  _559
REMARK  228  A    between atoms: _559  and  _560
REMARK  229  A    between atoms: _563  and  _564
REMARK  230  A    between atoms: _569  and  _571
REMARK  231  A    between atoms: _571  and  _572
REMARK  232  A    between atoms: _571  and  _574
REMARK  233  A    between atoms: _574  and  _575
REMARK  234  A    between atoms: _575  and  _576
REMARK  235  A    between atoms: _578  and  _580
REMARK  236  A    between atoms: _580  and  _581
REMARK  237  A    between atoms: _583  and  _585
REMARK  238  A    between atoms: _585  and  _586
REMARK  239  A    between atoms: _585  and  _588
REMARK  240  A    between atoms: _591  and  _593
REMARK  241  A    between atoms: _593  and  _594
REMARK  242  A    between atoms: _593  and  _596
REMARK  243  A    between atoms: _596  and  _597
REMARK  244  A    between atoms: _607  and  _609
REMARK  245  A    between atoms: _609  and  _610
REMARK  246  A    between atoms: _609  and  _612
REMARK  247  A    between atoms: _612  and  _613
REMARK  248  A    between atoms: _613  and  _614
REMARK  249  A    between atoms: _618  and  _619
REMARK  250  A    between atoms: _624  and  _626
REMARK  251  A    between atoms: _626  and  _627
REMARK  252  A    between atoms: _626  and  _629
REMARK  253  A    between atoms: _629  and  _630
REMARK  254  A    between atoms: _633  and  _635
REMARK  255  A    between atoms: _635  and  _636
REMARK  256  A    between atoms: _635  and  _638
REMARK  257  A    between atoms: _638  and  _639
REMARK  258  A    between atoms: _644  and  _646
REMARK  259  A    between atoms: _646  and  _647
REMARK  260  A    between atoms: _646  and  _649
REMARK  261  A    between atoms: _649  and  _650
REMARK                            x       y       z     vdW  Elec       q    Type
REMARK                         _______ _______ _______ _____ _____    ______ ____
ROOT
ATOM      1  O   HOH     1      24.941  12.141  12.356  0.00  0.00    +0.000 OA
ENDROOT
TORSDOF 0
REMARK  Name = ../refined-set-2016/2zym/2zym_pocket.pdb
REMARK  261 active torsions:
REMARK  status: ('A' for Active; 'I' for Inactive)
REMARK    1  A    between atoms: _1  and  _3
REMARK    2  A    between atoms: _3  and  _4
REMARK    3  A    between atoms: _3  and  _6
REMARK    4  A    between atoms: _6  and  _7
REMARK    5  A    between atoms: _7  and  _8
REMARK    6  A    between atoms: _11  and  _13
REMARK    7  A    between atoms: _13  and  _14
REMARK    8  A    between atoms: _13  and  _16
REMARK    9  A    between atoms: _16  and  _17
REMARK   10  A    between atoms: _22  and  _24
REMARK   11  A    between atoms: _24  and  _25
REMARK   12  A    between atoms: _28  and  _30
REMARK   13  A    between atoms: _30  and  _31
REMARK   14  A    between atoms: _30  and  _33
REMARK   15  A    between atoms: _33  and  _34
REMARK   16  A    between atoms: _37  and  _39
REMARK   17  A    between atoms: _39  and  _40
REMARK   18  A    between atoms: _39  and  _42
REMARK   19  A    between atoms: _42  and  _43
REMARK   20  A    between atoms: _43  and  _44
REMARK   21  A    between atoms: _49  and  _51
REMARK   22  A    between atoms: _51  and  _52
REMARK   23  A    between atoms: _51  and  _54
REMARK   24  A    between atoms: _57  and  _59
REMARK   25  A    between atoms: _59  and  _60
REMARK   26  A    between atoms: _63  and  _65
REMARK   27  A    between atoms: _65  and  _66
REMARK   28  A    between atoms: _65  and  _68
REMARK   29  A    between atoms: _68  and  _69
REMARK   30  A    between atoms: _72  and  _74
REMARK   31  A    between atoms: _74  and  _75
REMARK   32  A    between atoms: _74  and  _77
REMARK   33  A    between atoms: _77  and  _78
REMARK   34  A    between atoms: _81  and  _83
REMARK   35  A    between atoms: _83  and  _84
REMARK   36  A    between atoms: _83  and  _86
REMARK   37  A    between atoms: _86  and  _87
REMARK   38  A    between atoms: _87  and  _88
REMARK   39  A    between atoms: _88  and  _89
REMARK   40  A    between atoms: _89  and  _90
REMARK   41  A    between atoms: _94  and  _96
REMARK   42  A    between atoms: _96  and  _97
REMARK   43  A    between atoms: _96  and  _99
REMARK   44  A    between atoms: _99  and  _100
REMARK   45  A    between atoms: _100  and  _101
REMARK   46  A    between atoms: _106  and  _108
REMARK   47  A    between atoms: _108  and  _109
REMARK   48  A    between atoms: _108  and  _111
REMARK   49  A    between atoms: _111  and  _112
REMARK   50  A    between atoms: _112  and  _113
REMARK   51  A    between atoms: _118  and  _120
REMARK   52  A    between atoms: _120  and  _121
REMARK   53  A    between atoms: _120  and  _123
REMARK   54  A    between atoms: _123  and  _124
REMARK   55  A    between atoms: _124  and  _125
REMARK   56  A    between atoms: _128  and  _130
REMARK   57  A    between atoms: _130  and  _131
REMARK   58  A    between atoms: _130  and  _133
REMARK   59  A    between atoms: _133  and  _134
REMARK   60  A    between atoms: _134  and  _135
REMARK   61  A    between atoms: _135  and  _136
REMARK   62  A    between atoms: _136  and  _137
REMARK   63  A    between atoms: _141  and  _143
REMARK   64  A    between atoms: _143  and  _144
REMARK   65  A    between atoms: _143  and  _146
REMARK   66  A    between atoms: _146  and  _147
REMARK   67  A    between atoms: _150  and  _152
REMARK   68  A    between atoms: _152  and  _153
REMARK   69  A    between atoms: _152  and  _155
REMARK   70  A    between atoms: _155  and  _156
REMARK   71  A    between atoms: _167  and  _168
REMARK   72  A    between atoms: _173  and  _175
REMARK   73  A    between atoms: _175  and  _176
REMARK   74  A    between atoms: _175  and  _178
REMARK   75  A    between atoms: _178  and  _179
REMARK   76  A    between atoms: _184  and  _186
REMARK   77  A    between atoms: _186  and  _187
REMARK   78  A    between atoms: _186  and  _189
REMARK   79  A    between atoms: _189  and  _190
REMARK   80  A    between atoms: _193  and  _195
REMARK   81  A    between atoms: _195  and  _196
REMARK   82  A    between atoms: _195  and  _198
REMARK   83  A    between atoms: _198  and  _199
REMARK   84  A    between atoms: _199  and  _200
REMARK   85  A    between atoms: _200  and  _201
REMARK   86  A    between atoms: _210  and  _212
REMARK   87  A    between atoms: _212  and  _213
REMARK   88  A    between atoms: _212  and  _215
REMARK   89  A    between atoms: _215  and  _216
REMARK   90  A    between atoms: _219  and  _221
REMARK   91  A    between atoms: _221  and  _222
REMARK   92  A    between atoms: _221  and  _224
REMARK   93  A    between atoms: _224  and  _225
REMARK   94  A    between atoms: _225  and  _226
REMARK   95  A    between atoms: _229  and  _231
REMARK   96  A    between atoms: _231  and  _232
REMARK   97  A    between atoms: _231  and  _234
REMARK   98  A    between atoms: _234  and  _235
REMARK   99  A    between atoms: _235  and  _236
REMARK  100  A    between atoms: _236  and  _237
REMARK  101  A    between atoms: _237  and  _238
REMARK  102  A    between atoms: _242  and  _244
REMARK  103  A    between atoms: _244  and  _245
REMARK  104  A    between atoms: _248  and  _250
REMARK  105  A    between atoms: _250  and  _251
REMARK  106  A    between atoms: _250  and  _253
REMARK  107  A    between atoms: _253  and  _254
REMARK  108  A    between atoms: _254  and  _255
REMARK  109  A    between atoms: _258  and  _260
REMARK  110  A    between atoms: _260  and  _261
REMARK  111  A    between atoms: _260  and  _263
REMARK  112  A    between atoms: _263  and  _264
REMARK  113  A    between atoms: _266  and  _268
REMARK  114  A    between atoms: _268  and  _269
REMARK  115  A    between atoms: _268  and  _271
REMARK  116  A    between atoms: _274  and  _276
REMARK  117  A    between atoms: _276  and  _277
REMARK  118  A    between atoms: _276  and  _279
REMARK  119  A    between atoms: _279  and  _280
REMARK  120  A    between atoms: _280  and  _281
REMARK  121  A    between atoms: _284  and  _286
REMARK  122  A    between atoms: _286  and  _287
REMARK  123  A    between atoms: _286  and  _289
REMARK  124  A    between atoms: _289  and  _290
REMARK  125  A    between atoms: _295  and  _297
REMARK  126  A    between atoms: _297  and  _298
REMARK  127  A    between atoms: _297  and  _300
REMARK  128  A    between atoms: _300  and  _301
REMARK  129  A    between atoms: _306  and  _308
REMARK  130  A    between atoms: _308  and  _309
REMARK  131  A    between atoms: _308  and  _311
REMARK  132  A    between atoms: _311  and  _312
REMARK  133  A    between atoms: _318  and  _320
REMARK  134  A    between atoms: _320  and  _321
REMARK  135  A    between atoms: _320  and  _323
REMARK  136  A    between atoms: _323  and  _324
REMARK  137  A    between atoms: _329  and  _330
REMARK  138  A    between atoms: _332  and  _334
REMARK  139  A    between atoms: _334  and  _335
REMARK  140  A    between atoms: _334  and  _337
REMARK  141  A    between atoms: _337  and  _338
REMARK  142  A    between atoms: _343  and  _344
REMARK  143  A    between atoms: _346  and  _348
REMARK  144  A    between atoms: _348  and  _349
REMARK  145  A    between atoms: _348  and  _351
REMARK  146  A    between atoms: _351  and  _352
REMARK  147  A    between atoms: _355  and  _357
REMARK  148  A    between atoms: _357  and  _358
REMARK  149  A    between atoms: _357  and  _360
REMARK  150  A    between atoms: _360  and  _361
REMARK  151  A    between atoms: _364  and  _366
REMARK  152  A    between atoms: _366  and  _367
REMARK  153  A    between atoms: _366  and  _369
REMARK  154  A    between atoms: _369  and  _370
REMARK  155  A    between atoms: _370  and  _371
REMARK  156  A    between atoms: _371  and  _372
REMARK  157  A    between atoms: _372  and  _373
REMARK  158  A    between atoms: _377  and  _379
REMARK  159  A    between atoms: _379  and  _380
REMARK  160  A    between atoms: _383  and  _385
REMARK  161  A    between atoms: _385  and  _386
REMARK  162  A    between atoms: _385  and  _388
REMARK  163  A    between atoms: _388  and  _389
REMARK  164  A    between atoms: _392  and  _394
REMARK  165  A    between atoms: _394  and  _395
REMARK  166  A    between atoms: _394  and  _397
REMARK  167  A    between atoms: _397  and  _398
REMARK  168  A    between atoms: _401  and  _403
REMARK  169  A    between atoms: _403  and  _404
REMARK  170  A    between atoms: _403  and  _406
REMARK  171  A    between atoms: _409  and  _411
REMARK  172  A    between atoms: _411  and  _412
REMARK  173  A    between atoms: _411  and  _414
REMARK  174  A    between atoms: _414  and  _415
REMARK  175  A    between atoms: _420  and  _422
REMARK  176  A    between atoms: _422  and  _423
REMARK  177  A    between atoms: _422  and  _425
REMARK  178  A    between atoms: _425  and  _426
REMARK  179  A    between atoms: _431  and  _433
REMARK  180  A    between atoms: _433  and  _434
REMARK  181  A    between atoms: _437  and  _438
REMARK  182  A    between atoms: _443  and  _445
REMARK  183  A    between atoms: _445  and  _446
REMARK  184  A    between atoms: _445  and  _448
REMARK  185  A    between atoms: _448  and  _449
REMARK  186  A    between atoms: _459  and  _461
REMARK  187  A    between atoms: _461  and  _462
REMARK  188  A    between atoms: _465  and  _467
REMARK  189  A    between atoms: _467  and  _468
REMARK  190  A    between atoms: _467  and  _470
REMARK  191  A    between atoms: _470  and  _471
REMARK  192  A    between atoms: _476  and  _477
REMARK  193  A    between atoms: _479  and  _481
REMARK  194  A    between atoms: _481  and  _482
REMARK  195  A    between atoms: _481  and  _484
REMARK  196  A    between atoms: _484  and  _485
REMARK  197  A    between atoms: _491  and  _493
REMARK  198  A    between atoms: _493  and  _494
REMARK  199  A    between atoms: _493  and  _496
REMARK  200  A    between atoms: _496  and  _497
REMARK  201  A    between atoms: _500  and  _502
REMARK  202  A    between atoms: _502  and  _503
REMARK  203  A    between atoms: _505  and  _507
REMARK  204  A    between atoms: _507  and  _508
REMARK  205  A    between atoms: _507  and  _510
REMARK  206  A    between atoms: _513  and  _515
REMARK  207  A    between atoms: _515  and  _516
REMARK  208  A    between atoms: _515  and  _518
REMARK  209  A    between atoms: _518  and  _519
REMARK  210  A    between atoms: _519  and  _520
REMARK  211  A    between atoms: _520  and  _521
REMARK  212  A    between atoms: _521  and  _522
REMARK  213  A    between atoms: _526  and  _528
REMARK  214  A    between atoms: _528  and  _529
REMARK  215  A    between atoms: _528  and  _531
REMARK  216  A    between atoms: _531  and  _532
REMARK  217  A    between atoms: _532  and  _533
REMARK  218  A    between atoms: _533  and  _534
REMARK  219  A    between atoms: _543  and  _545
REMARK  220  A    between atoms: _545  and  _546
REMARK  221  A    between atoms: _545  and  _548
REMARK  222  A    between atoms: _548  and  _549
REMARK  223  A    between atoms: _549  and  _550
REMARK  224  A    between atoms: _553  and  _555
REMARK  225  A    between atoms: _555  and  _556
REMARK  226  A    between atoms: _555  and  _558
REMARK  227  A    between atoms: _558  and  _559
REMARK  228  A    between atoms: _559  and  _560
REMARK  229  A    between atoms: _563  and  _564
REMARK  230  A    between atoms: _569  and  _571
REMARK  231  A    between atoms: _571  and  _572
REMARK  232  A    between atoms: _571  and  _574
REMARK  233  A    between atoms: _574  and  _575
REMARK  234  A    between atoms: _575  and  _576
REMARK  235  A    between atoms: _578  and  _580
REMARK  236  A    between atoms: _580  and  _581
REMARK  237  A    between atoms: _583  and  _585
REMARK  238  A    between atoms: _585  and  _586
REMARK  239  A    between atoms: _585  and  _588
REMARK  240  A    between atoms: _591  and  _593
REMARK  241  A    between atoms: _593  and  _594
REMARK  242  A    between atoms: _593  and  _596
REMARK  243  A    between atoms: _596  and  _597
REMARK  244  A    between atoms: _607  and  _609
REMARK  245  A    between atoms: _609  and  _610
REMARK  246  A    between atoms: _609  and  _612
REMARK  247  A    between atoms: _612  and  _613
REMARK  248  A    between atoms: _613  and  _614
REMARK  249  A    between atoms: _618  and  _619
REMARK  250  A    between atoms: _624  and  _626
REMARK  251  A    between atoms: _626  and  _627
REMARK  252  A    between atoms: _626  and  _629
REMARK  253  A    between atoms: _629  and  _630
REMARK  254  A    between atoms: _633  and  _635
REMARK  255  A    between atoms: _635  and  _636
REMARK  256  A    between atoms: _635  and  _638
REMARK  257  A    between atoms: _638  and  _639
REMARK  258  A    between atoms: _644  and  _646
REMARK  259  A    between atoms: _646  and  _647
REMARK  260  A    between atoms: _646  and  _649
REMARK  261  A    between atoms: _649  and  _650
REMARK                            x       y       z     vdW  Elec       q    Type
REMARK                         _______ _______ _______ _____ _____    ______ ____
ROOT
ATOM      1  O   HOH     1      10.960   2.145  12.318  0.00  0.00    +0.000 OA
ENDROOT
TORSDOF 0
